Serotonin__p0


 18 19  0  0  0  0  0  0  0  0999 V2000
    6.3034    3.6985   -1.3497 C   0  0  0  0  0  0  0  0  0  0  0  0
    6.5990    4.3622   -0.1757 C   0  0  0  0  0  0  0  0  0  0  0  0
    6.6932    3.4386    0.8322 N   0  0  0  0  0  0  0  0  0  0  0  0
    6.4892    2.1732    0.3333 C   0  0  0  0  0  0  0  0  0  0  0  0
    6.4911    0.9382    0.9926 C   0  0  0  0  0  0  0  0  0  0  0  0
    6.2394   -0.2080    0.2322 C   0  0  0  0  0  0  0  0  0  0  0  0
    6.0005   -0.1264   -1.1376 C   0  0  0  0  0  0  0  0  0  0  0  0
    6.0040    1.1174   -1.7753 C   0  0  0  0  0  0  0  0  0  0  0  0
    5.8166    1.1767   -3.1416 O   0  0  0  0  0  0  0  0  0  0  0  0
    6.2451    2.2976   -1.0349 C   0  0  0  0  0  0  0  0  0  0  0  0
    6.8691    3.6504    1.8067 H   0  0  0  0  0  0  0  0  0  0  0  0
    5.2832    0.3858   -3.3687 H   0  0  0  0  0  0  0  0  0  0  0  0
    6.0619    4.3302   -2.6846 C   0  0  0  0  0  0  0  0  0  0  0  0
    4.0876    5.8201   -2.4523 N   0  0  0  0  0  0  0  0  0  0  0  0
    4.5802    4.5331   -3.0000 C   0  0  0  0  0  0  0  0  0  0  0  0
    4.7835    6.5740   -2.6058 H   0  0  0  0  0  0  0  0  0  0  0  0
    3.1858    6.1148   -2.8383 H   0  0  0  0  0  0  0  0  0  0  0  0
    4.0022    5.7624   -1.4279 H   0  0  0  0  0  0  0  0  0  0  0  0
 14 15  1  0
 15 13  1  0
 13  1  1  0
  1  2  2  0
  2  3  1  0
  3  4  1  0
  4  5  2  0
  5  6  1  0
  6  7  2  0
  7  8  1  0
  8  9  1  0
  8 10  2  0
 10  1  1  0
 10  4  1  0
 14 16  1  0
 14 17  1  0
 14 18  1  0
  3 11  1  0
  9 12  1  0
M  CHG 1  14   1
M  END
> <input_smiles>
NCCc1c[nH]c2cccc(O)c12

> <prot_variant_index>
0

> <minimizedAffinity>
0.00000

> <CNNscore>
0.6567142606

> <CNNaffinity>
3.1059484482

> <CNN_VS>
2.0397205353

> <CNNaffinity_variance>
0.5449110270

$$$$
Serotonin__p0


 18 19  0  0  0  0  0  0  0  0999 V2000
    5.2630    3.1979    2.8953 C   0  0  0  0  0  0  0  0  0  0  0  0
    5.8101    3.4369    4.1403 C   0  0  0  0  0  0  0  0  0  0  0  0
    4.8007    3.7922    4.9961 N   0  0  0  0  0  0  0  0  0  0  0  0
    3.5930    3.7654    4.3385 C   0  0  0  0  0  0  0  0  0  0  0  0
    2.3075    4.0541    4.8118 C   0  0  0  0  0  0  0  0  0  0  0  0
    1.2430    3.9566    3.9103 C   0  0  0  0  0  0  0  0  0  0  0  0
    1.4517    3.5786    2.5861 C   0  0  0  0  0  0  0  0  0  0  0  0
    2.7439    3.2942    2.1354 C   0  0  0  0  0  0  0  0  0  0  0  0
    2.9278    2.8715    0.8343 O   0  0  0  0  0  0  0  0  0  0  0  0
    3.8445    3.3926    3.0175 C   0  0  0  0  0  0  0  0  0  0  0  0
    4.9204    4.0546    5.9669 H   0  0  0  0  0  0  0  0  0  0  0  0
    2.1844    3.2572    0.3245 H   0  0  0  0  0  0  0  0  0  0  0  0
    6.0165    2.8351    1.6545 C   0  0  0  0  0  0  0  0  0  0  0  0
    7.5771    4.7036    1.1592 N   0  0  0  0  0  0  0  0  0  0  0  0
    6.3170    4.0341    0.7554 C   0  0  0  0  0  0  0  0  0  0  0  0
    8.3061    4.0030    1.3915 H   0  0  0  0  0  0  0  0  0  0  0  0
    7.9464    5.3481    0.4540 H   0  0  0  0  0  0  0  0  0  0  0  0
    7.4394    5.2229    2.0375 H   0  0  0  0  0  0  0  0  0  0  0  0
 14 15  1  0
 15 13  1  0
 13  1  1  0
  1  2  2  0
  2  3  1  0
  3  4  1  0
  4  5  2  0
  5  6  1  0
  6  7  2  0
  7  8  1  0
  8  9  1  0
  8 10  2  0
 10  1  1  0
 10  4  1  0
 14 16  1  0
 14 17  1  0
 14 18  1  0
  3 11  1  0
  9 12  1  0
M  CHG 1  14   1
M  END
> <input_smiles>
NCCc1c[nH]c2cccc(O)c12

> <prot_variant_index>
0

> <minimizedAffinity>
0.00000

> <CNNscore>
0.6516541243

> <CNNaffinity>
3.1723334789

> <CNN_VS>
2.0672640800

> <CNNaffinity_variance>
0.8058823943

$$$$
Serotonin__p0


 18 19  0  0  0  0  0  0  0  0999 V2000
    5.7753    4.6540   -0.9588 C   0  0  0  0  0  0  0  0  0  0  0  0
    6.0654    5.7184   -0.1287 C   0  0  0  0  0  0  0  0  0  0  0  0
    6.1151    5.2604    1.1618 N   0  0  0  0  0  0  0  0  0  0  0  0
    5.8874    3.9042    1.1904 C   0  0  0  0  0  0  0  0  0  0  0  0
    5.8435    3.0250    2.2790 C   0  0  0  0  0  0  0  0  0  0  0  0
    5.5764    1.6773    2.0189 C   0  0  0  0  0  0  0  0  0  0  0  0
    5.3667    1.2213    0.7196 C   0  0  0  0  0  0  0  0  0  0  0  0
    5.4158    2.1171   -0.3524 C   0  0  0  0  0  0  0  0  0  0  0  0
    5.2568    1.6412   -1.6383 O   0  0  0  0  0  0  0  0  0  0  0  0
    5.6736    3.4885   -0.1244 C   0  0  0  0  0  0  0  0  0  0  0  0
    6.2775    5.8329    1.9811 H   0  0  0  0  0  0  0  0  0  0  0  0
    4.7072    0.8335   -1.5541 H   0  0  0  0  0  0  0  0  0  0  0  0
    5.5770    4.7181   -2.4406 C   0  0  0  0  0  0  0  0  0  0  0  0
    7.1329    3.0961   -3.4989 N   0  0  0  0  0  0  0  0  0  0  0  0
    6.8700    4.5313   -3.2339 C   0  0  0  0  0  0  0  0  0  0  0  0
    6.2578    2.6062   -3.7639 H   0  0  0  0  0  0  0  0  0  0  0  0
    7.8391    2.9326   -4.2225 H   0  0  0  0  0  0  0  0  0  0  0  0
    7.4334    2.6232   -2.6351 H   0  0  0  0  0  0  0  0  0  0  0  0
 14 15  1  0
 15 13  1  0
 13  1  1  0
  1  2  2  0
  2  3  1  0
  3  4  1  0
  4  5  2  0
  5  6  1  0
  6  7  2  0
  7  8  1  0
  8  9  1  0
  8 10  2  0
 10  1  1  0
 10  4  1  0
 14 16  1  0
 14 17  1  0
 14 18  1  0
  3 11  1  0
  9 12  1  0
M  CHG 1  14   1
M  END
> <input_smiles>
NCCc1c[nH]c2cccc(O)c12

> <prot_variant_index>
0

> <minimizedAffinity>
0.00000

> <CNNscore>
0.6453278065

> <CNNaffinity>
3.2892792225

> <CNN_VS>
2.1226632595

> <CNNaffinity_variance>
1.0116990805

$$$$
Serotonin__p0


 18 19  0  0  0  0  0  0  0  0999 V2000
    7.5458    2.1599   -1.4560 C   0  0  0  0  0  0  0  0  0  0  0  0
    7.7544    3.2826   -0.6800 C   0  0  0  0  0  0  0  0  0  0  0  0
    8.0258    4.3386   -1.5099 N   0  0  0  0  0  0  0  0  0  0  0  0
    7.9734    3.9326   -2.8230 C   0  0  0  0  0  0  0  0  0  0  0  0
    8.1827    4.6653   -3.9974 C   0  0  0  0  0  0  0  0  0  0  0  0
    8.0769    3.9885   -5.2164 C   0  0  0  0  0  0  0  0  0  0  0  0
    7.7672    2.6313   -5.2633 C   0  0  0  0  0  0  0  0  0  0  0  0
    7.5616    1.9196   -4.0780 C   0  0  0  0  0  0  0  0  0  0  0  0
    7.2051    0.5877   -4.1429 O   0  0  0  0  0  0  0  0  0  0  0  0
    7.6707    2.5704   -2.8274 C   0  0  0  0  0  0  0  0  0  0  0  0
    8.2505    5.2788   -1.2080 H   0  0  0  0  0  0  0  0  0  0  0  0
    7.5789    0.2559   -4.9865 H   0  0  0  0  0  0  0  0  0  0  0  0
    7.2723    0.7773   -0.9533 C   0  0  0  0  0  0  0  0  0  0  0  0
    6.8198    0.3948    1.4593 N   0  0  0  0  0  0  0  0  0  0  0  0
    7.8758    0.5024    0.4238 C   0  0  0  0  0  0  0  0  0  0  0  0
    6.0110   -0.1483    1.1028 H   0  0  0  0  0  0  0  0  0  0  0  0
    7.1428   -0.0244    2.3362 H   0  0  0  0  0  0  0  0  0  0  0  0
    6.4267    1.3238    1.6656 H   0  0  0  0  0  0  0  0  0  0  0  0
 14 15  1  0
 15 13  1  0
 13  1  1  0
  1  2  2  0
  2  3  1  0
  3  4  1  0
  4  5  2  0
  5  6  1  0
  6  7  2  0
  7  8  1  0
  8  9  1  0
  8 10  2  0
 10  1  1  0
 10  4  1  0
 14 16  1  0
 14 17  1  0
 14 18  1  0
  3 11  1  0
  9 12  1  0
M  CHG 1  14   1
M  END
> <input_smiles>
NCCc1c[nH]c2cccc(O)c12

> <prot_variant_index>
0

> <minimizedAffinity>
0.00000

> <CNNscore>
0.6338682175

> <CNNaffinity>
3.1750068665

> <CNN_VS>
2.0125360489

> <CNNaffinity_variance>
0.9190449119

$$$$
Serotonin__p0


 18 19  0  0  0  0  0  0  0  0999 V2000
   -6.9418   -0.8238    1.3859 C   0  0  0  0  0  0  0  0  0  0  0  0
   -6.3560   -1.2948    2.5440 C   0  0  0  0  0  0  0  0  0  0  0  0
   -5.1231   -1.8036    2.2300 N   0  0  0  0  0  0  0  0  0  0  0  0
   -4.8779   -1.6507    0.8853 C   0  0  0  0  0  0  0  0  0  0  0  0
   -3.7591   -2.0214    0.1298 C   0  0  0  0  0  0  0  0  0  0  0  0
   -3.7802   -1.7533   -1.2424 C   0  0  0  0  0  0  0  0  0  0  0  0
   -4.8749   -1.1321   -1.8390 C   0  0  0  0  0  0  0  0  0  0  0  0
   -5.9811   -0.7701   -1.0650 C   0  0  0  0  0  0  0  0  0  0  0  0
   -7.0359   -0.1093   -1.6618 O   0  0  0  0  0  0  0  0  0  0  0  0
   -5.9973   -1.0354    0.3236 C   0  0  0  0  0  0  0  0  0  0  0  0
   -4.4875   -2.2450    2.8832 H   0  0  0  0  0  0  0  0  0  0  0  0
   -7.0252   -0.3904   -2.6011 H   0  0  0  0  0  0  0  0  0  0  0  0
   -8.3119   -0.2343    1.2657 C   0  0  0  0  0  0  0  0  0  0  0  0
   -9.6318   -1.2237   -0.5919 N   0  0  0  0  0  0  0  0  0  0  0  0
   -9.3782   -1.2549    0.8688 C   0  0  0  0  0  0  0  0  0  0  0  0
   -8.7411   -1.1372   -1.1167 H   0  0  0  0  0  0  0  0  0  0  0  0
  -10.1458   -2.0387   -0.9391 H   0  0  0  0  0  0  0  0  0  0  0  0
  -10.1554   -0.3740   -0.8448 H   0  0  0  0  0  0  0  0  0  0  0  0
 14 15  1  0
 15 13  1  0
 13  1  1  0
  1  2  2  0
  2  3  1  0
  3  4  1  0
  4  5  2  0
  5  6  1  0
  6  7  2  0
  7  8  1  0
  8  9  1  0
  8 10  2  0
 10  1  1  0
 10  4  1  0
 14 16  1  0
 14 17  1  0
 14 18  1  0
  3 11  1  0
  9 12  1  0
M  CHG 1  14   1
M  END
> <input_smiles>
NCCc1c[nH]c2cccc(O)c12

> <prot_variant_index>
0

> <minimizedAffinity>
0.00000

> <CNNscore>
0.6259352565

> <CNNaffinity>
3.1821022034

> <CNN_VS>
1.9917899370

> <CNNaffinity_variance>
0.5454782844

$$$$
Serotonin__p0


 18 19  0  0  0  0  0  0  0  0999 V2000
    6.1802   -5.8492   -0.4932 C   0  0  0  0  0  0  0  0  0  0  0  0
    7.2667   -6.0452    0.3358 C   0  0  0  0  0  0  0  0  0  0  0  0
    8.4064   -5.7573   -0.3682 N   0  0  0  0  0  0  0  0  0  0  0  0
    8.0842   -5.3496   -1.6417 C   0  0  0  0  0  0  0  0  0  0  0  0
    8.9182   -4.9616   -2.6971 C   0  0  0  0  0  0  0  0  0  0  0  0
    8.3156   -4.6012   -3.9064 C   0  0  0  0  0  0  0  0  0  0  0  0
    6.9309   -4.6208   -4.0561 C   0  0  0  0  0  0  0  0  0  0  0  0
    6.1175   -5.0111   -2.9885 C   0  0  0  0  0  0  0  0  0  0  0  0
    4.7456   -4.9761   -3.1365 O   0  0  0  0  0  0  0  0  0  0  0  0
    6.6940   -5.3914   -1.7548 C   0  0  0  0  0  0  0  0  0  0  0  0
    9.3516   -5.8463   -0.0155 H   0  0  0  0  0  0  0  0  0  0  0  0
    4.5809   -5.1009   -4.0950 H   0  0  0  0  0  0  0  0  0  0  0  0
    4.7466   -6.0980   -0.1440 C   0  0  0  0  0  0  0  0  0  0  0  0
    4.1611   -4.7189    1.8377 N   0  0  0  0  0  0  0  0  0  0  0  0
    4.0224   -4.8529    0.3674 C   0  0  0  0  0  0  0  0  0  0  0  0
    5.1283   -4.9455    2.1366 H   0  0  0  0  0  0  0  0  0  0  0  0
    3.9108   -3.7915    2.1930 H   0  0  0  0  0  0  0  0  0  0  0  0
    3.5797   -5.4210    2.3162 H   0  0  0  0  0  0  0  0  0  0  0  0
 14 15  1  0
 15 13  1  0
 13  1  1  0
  1  2  2  0
  2  3  1  0
  3  4  1  0
  4  5  2  0
  5  6  1  0
  6  7  2  0
  7  8  1  0
  8  9  1  0
  8 10  2  0
 10  1  1  0
 10  4  1  0
 14 16  1  0
 14 17  1  0
 14 18  1  0
  3 11  1  0
  9 12  1  0
M  CHG 1  14   1
M  END
> <input_smiles>
NCCc1c[nH]c2cccc(O)c12

> <prot_variant_index>
0

> <minimizedAffinity>
0.00000

> <CNNscore>
0.6169292927

> <CNNaffinity>
3.0147225857

> <CNN_VS>
1.8598706722

> <CNNaffinity_variance>
0.6829419136

$$$$
Serotonin__p0


 18 19  0  0  0  0  0  0  0  0999 V2000
   -8.4670   -1.0363    3.0396 C   0  0  0  0  0  0  0  0  0  0  0  0
   -7.7458   -1.0328    4.2170 C   0  0  0  0  0  0  0  0  0  0  0  0
   -6.4295   -1.2702    3.9195 N   0  0  0  0  0  0  0  0  0  0  0  0
   -6.2696   -1.4044    2.5600 C   0  0  0  0  0  0  0  0  0  0  0  0
   -5.1118   -1.6538    1.8135 C   0  0  0  0  0  0  0  0  0  0  0  0
   -5.2402   -1.7558    0.4248 C   0  0  0  0  0  0  0  0  0  0  0  0
   -6.4773   -1.6081   -0.1979 C   0  0  0  0  0  0  0  0  0  0  0  0
   -7.6201   -1.3588    0.5675 C   0  0  0  0  0  0  0  0  0  0  0  0
   -8.8297   -1.1639   -0.0684 O   0  0  0  0  0  0  0  0  0  0  0  0
   -7.5281   -1.2596    1.9749 C   0  0  0  0  0  0  0  0  0  0  0  0
   -5.6813   -1.3538    4.5969 H   0  0  0  0  0  0  0  0  0  0  0  0
   -8.7670   -1.6607   -0.9115 H   0  0  0  0  0  0  0  0  0  0  0  0
   -9.9483   -0.8685    2.9108 C   0  0  0  0  0  0  0  0  0  0  0  0
  -10.9959   -2.6002    1.4701 N   0  0  0  0  0  0  0  0  0  0  0  0
  -10.7070   -2.1947    2.8669 C   0  0  0  0  0  0  0  0  0  0  0  0
  -10.1756   -2.4237    0.8602 H   0  0  0  0  0  0  0  0  0  0  0  0
  -11.2778   -3.5803    1.3748 H   0  0  0  0  0  0  0  0  0  0  0  0
  -11.7367   -2.0061    1.0722 H   0  0  0  0  0  0  0  0  0  0  0  0
 14 15  1  0
 15 13  1  0
 13  1  1  0
  1  2  2  0
  2  3  1  0
  3  4  1  0
  4  5  2  0
  5  6  1  0
  6  7  2  0
  7  8  1  0
  8  9  1  0
  8 10  2  0
 10  1  1  0
 10  4  1  0
 14 16  1  0
 14 17  1  0
 14 18  1  0
  3 11  1  0
  9 12  1  0
M  CHG 1  14   1
M  END
> <input_smiles>
NCCc1c[nH]c2cccc(O)c12

> <prot_variant_index>
0

> <minimizedAffinity>
0.00000

> <CNNscore>
0.6161767244

> <CNNaffinity>
3.2929067612

> <CNN_VS>
2.0290124416

> <CNNaffinity_variance>
0.4737095833

$$$$
Serotonin__p0


 18 19  0  0  0  0  0  0  0  0999 V2000
   -8.6196    0.0773    1.2921 C   0  0  0  0  0  0  0  0  0  0  0  0
   -7.8579   -0.3022    2.3793 C   0  0  0  0  0  0  0  0  0  0  0  0
   -6.5417   -0.3260    1.9991 N   0  0  0  0  0  0  0  0  0  0  0  0
   -6.4234    0.0577    0.6835 C   0  0  0  0  0  0  0  0  0  0  0  0
   -5.2810    0.1765   -0.1168 C   0  0  0  0  0  0  0  0  0  0  0  0
   -5.4532    0.5815   -1.4441 C   0  0  0  0  0  0  0  0  0  0  0  0
   -6.7185    0.8640   -1.9534 C   0  0  0  0  0  0  0  0  0  0  0  0
   -7.8453    0.7391   -1.1359 C   0  0  0  0  0  0  0  0  0  0  0  0
   -9.0863    1.0720   -1.6405 O   0  0  0  0  0  0  0  0  0  0  0  0
   -7.7085    0.3222    0.2082 C   0  0  0  0  0  0  0  0  0  0  0  0
   -5.7660   -0.6015    2.5889 H   0  0  0  0  0  0  0  0  0  0  0  0
   -9.0256    0.9235   -2.6079 H   0  0  0  0  0  0  0  0  0  0  0  0
  -10.1118    0.1814    1.2524 C   0  0  0  0  0  0  0  0  0  0  0  0
  -11.0250   -2.0798    1.7267 N   0  0  0  0  0  0  0  0  0  0  0  0
  -10.7910   -1.0605    0.6755 C   0  0  0  0  0  0  0  0  0  0  0  0
  -11.3611   -1.6340    2.6011 H   0  0  0  0  0  0  0  0  0  0  0  0
  -11.6848   -2.8131    1.4510 H   0  0  0  0  0  0  0  0  0  0  0  0
  -10.1362   -2.5237    1.9971 H   0  0  0  0  0  0  0  0  0  0  0  0
 14 15  1  0
 15 13  1  0
 13  1  1  0
  1  2  2  0
  2  3  1  0
  3  4  1  0
  4  5  2  0
  5  6  1  0
  6  7  2  0
  7  8  1  0
  8  9  1  0
  8 10  2  0
 10  1  1  0
 10  4  1  0
 14 16  1  0
 14 17  1  0
 14 18  1  0
  3 11  1  0
  9 12  1  0
M  CHG 1  14   1
M  END
> <input_smiles>
NCCc1c[nH]c2cccc(O)c12

> <prot_variant_index>
0

> <minimizedAffinity>
0.00000

> <CNNscore>
0.6144402027

> <CNNaffinity>
3.0467302799

> <CNN_VS>
1.8720335960

> <CNNaffinity_variance>
0.6777395606

$$$$
Serotonin__p0


 18 19  0  0  0  0  0  0  0  0999 V2000
    3.6114    6.9954    0.9977 C   0  0  0  0  0  0  0  0  0  0  0  0
    2.8139    8.0829    0.7020 C   0  0  0  0  0  0  0  0  0  0  0  0
    1.6250    7.6242    0.1984 N   0  0  0  0  0  0  0  0  0  0  0  0
    1.6184    6.2489    0.1825 C   0  0  0  0  0  0  0  0  0  0  0  0
    0.6237    5.3617   -0.2458 C   0  0  0  0  0  0  0  0  0  0  0  0
    0.8903    3.9917   -0.1600 C   0  0  0  0  0  0  0  0  0  0  0  0
    2.1026    3.5228    0.3406 C   0  0  0  0  0  0  0  0  0  0  0  0
    3.0813    4.4270    0.7631 C   0  0  0  0  0  0  0  0  0  0  0  0
    4.2566    3.9463    1.3043 O   0  0  0  0  0  0  0  0  0  0  0  0
    2.8489    5.8193    0.6811 C   0  0  0  0  0  0  0  0  0  0  0  0
    0.8649    8.2061   -0.1322 H   0  0  0  0  0  0  0  0  0  0  0  0
    4.3884    3.0612    0.9034 H   0  0  0  0  0  0  0  0  0  0  0  0
    5.0129    7.0439    1.5199 C   0  0  0  0  0  0  0  0  0  0  0  0
    6.3963    8.2199   -0.1757 N   0  0  0  0  0  0  0  0  0  0  0  0
    6.0722    6.9043    0.4269 C   0  0  0  0  0  0  0  0  0  0  0  0
    6.4651    8.9514    0.5567 H   0  0  0  0  0  0  0  0  0  0  0  0
    7.2584    8.2194   -0.7288 H   0  0  0  0  0  0  0  0  0  0  0  0
    5.6224    8.5377   -0.7758 H   0  0  0  0  0  0  0  0  0  0  0  0
 14 15  1  0
 15 13  1  0
 13  1  1  0
  1  2  2  0
  2  3  1  0
  3  4  1  0
  4  5  2  0
  5  6  1  0
  6  7  2  0
  7  8  1  0
  8  9  1  0
  8 10  2  0
 10  1  1  0
 10  4  1  0
 14 16  1  0
 14 17  1  0
 14 18  1  0
  3 11  1  0
  9 12  1  0
M  CHG 1  14   1
M  END
> <input_smiles>
NCCc1c[nH]c2cccc(O)c12

> <prot_variant_index>
0

> <minimizedAffinity>
0.00000

> <CNNscore>
0.6115983725

> <CNNaffinity>
3.0541546345

> <CNN_VS>
1.8679159880

> <CNNaffinity_variance>
0.6325399280

$$$$
Serotonin__p0


 18 19  0  0  0  0  0  0  0  0999 V2000
   -3.0586    2.7213   -2.0016 C   0  0  0  0  0  0  0  0  0  0  0  0
   -1.7572    2.3226   -1.7698 C   0  0  0  0  0  0  0  0  0  0  0  0
   -0.9318    3.0330   -2.6016 N   0  0  0  0  0  0  0  0  0  0  0  0
   -1.6691    3.9125   -3.3597 C   0  0  0  0  0  0  0  0  0  0  0  0
   -1.2502    4.8268   -4.3336 C   0  0  0  0  0  0  0  0  0  0  0  0
   -2.2284    5.6001   -4.9664 C   0  0  0  0  0  0  0  0  0  0  0  0
   -3.5753    5.4712   -4.6356 C   0  0  0  0  0  0  0  0  0  0  0  0
   -3.9707    4.5521   -3.6594 C   0  0  0  0  0  0  0  0  0  0  0  0
   -5.3029    4.4727   -3.3066 O   0  0  0  0  0  0  0  0  0  0  0  0
   -3.0090    3.7470   -3.0068 C   0  0  0  0  0  0  0  0  0  0  0  0
    0.0724    2.9202   -2.6671 H   0  0  0  0  0  0  0  0  0  0  0  0
   -5.8029    4.7605   -4.0994 H   0  0  0  0  0  0  0  0  0  0  0  0
   -4.2829    2.1635   -1.3467 C   0  0  0  0  0  0  0  0  0  0  0  0
   -5.0607    0.3566    0.1706 N   0  0  0  0  0  0  0  0  0  0  0  0
   -4.1379    0.6975   -0.9390 C   0  0  0  0  0  0  0  0  0  0  0  0
   -5.9917    0.7883    0.0187 H   0  0  0  0  0  0  0  0  0  0  0  0
   -5.1794   -0.6506    0.3140 H   0  0  0  0  0  0  0  0  0  0  0  0
   -4.7303    0.7762    1.0508 H   0  0  0  0  0  0  0  0  0  0  0  0
 14 15  1  0
 15 13  1  0
 13  1  1  0
  1  2  2  0
  2  3  1  0
  3  4  1  0
  4  5  2  0
  5  6  1  0
  6  7  2  0
  7  8  1  0
  8  9  1  0
  8 10  2  0
 10  1  1  0
 10  4  1  0
 14 16  1  0
 14 17  1  0
 14 18  1  0
  3 11  1  0
  9 12  1  0
M  CHG 1  14   1
M  END
> <input_smiles>
NCCc1c[nH]c2cccc(O)c12

> <prot_variant_index>
0

> <minimizedAffinity>
0.00000

> <CNNscore>
0.6106888056

> <CNNaffinity>
3.1858501434

> <CNN_VS>
1.9455630779

> <CNNaffinity_variance>
1.0945273638

$$$$
Serotonin__p0


 18 19  0  0  0  0  0  0  0  0999 V2000
    3.3429    1.2295    0.0998 C   0  0  0  0  0  0  0  0  0  0  0  0
    2.9452    1.8807   -1.0509 C   0  0  0  0  0  0  0  0  0  0  0  0
    2.9820    3.2307   -0.8194 N   0  0  0  0  0  0  0  0  0  0  0  0
    3.4233    3.4785    0.4595 C   0  0  0  0  0  0  0  0  0  0  0  0
    3.6139    4.6969    1.1222 C   0  0  0  0  0  0  0  0  0  0  0  0
    4.0671    4.6566    2.4445 C   0  0  0  0  0  0  0  0  0  0  0  0
    4.3269    3.4454    3.0812 C   0  0  0  0  0  0  0  0  0  0  0  0
    4.1301    2.2408    2.3999 C   0  0  0  0  0  0  0  0  0  0  0  0
    4.4409    1.0512    3.0273 O   0  0  0  0  0  0  0  0  0  0  0  0
    3.6632    2.2446    1.0653 C   0  0  0  0  0  0  0  0  0  0  0  0
    2.7090    3.9467   -1.4816 H   0  0  0  0  0  0  0  0  0  0  0  0
    4.3346    1.2239    3.9866 H   0  0  0  0  0  0  0  0  0  0  0  0
    3.3975   -0.2521    0.3021 C   0  0  0  0  0  0  0  0  0  0  0  0
    1.7740   -1.6395   -0.9672 N   0  0  0  0  0  0  0  0  0  0  0  0
    3.1340   -1.0485   -0.9756 C   0  0  0  0  0  0  0  0  0  0  0  0
    1.0818   -0.9607   -0.5981 H   0  0  0  0  0  0  0  0  0  0  0  0
    1.4615   -1.9689   -1.8853 H   0  0  0  0  0  0  0  0  0  0  0  0
    1.7313   -2.4265   -0.3048 H   0  0  0  0  0  0  0  0  0  0  0  0
 14 15  1  0
 15 13  1  0
 13  1  1  0
  1  2  2  0
  2  3  1  0
  3  4  1  0
  4  5  2  0
  5  6  1  0
  6  7  2  0
  7  8  1  0
  8  9  1  0
  8 10  2  0
 10  1  1  0
 10  4  1  0
 14 16  1  0
 14 17  1  0
 14 18  1  0
  3 11  1  0
  9 12  1  0
M  CHG 1  14   1
M  END
> <input_smiles>
NCCc1c[nH]c2cccc(O)c12

> <prot_variant_index>
0

> <minimizedAffinity>
0.00000

> <CNNscore>
0.6091023684

> <CNNaffinity>
3.1953904629

> <CNN_VS>
1.9463199377

> <CNNaffinity_variance>
0.8416036963

$$$$
Serotonin__p0


 18 19  0  0  0  0  0  0  0  0999 V2000
   -3.6651    0.9057    0.0894 C   0  0  0  0  0  0  0  0  0  0  0  0
   -2.3637    0.5071    0.3211 C   0  0  0  0  0  0  0  0  0  0  0  0
   -1.5384    1.2174   -0.5106 N   0  0  0  0  0  0  0  0  0  0  0  0
   -2.2757    2.0969   -1.2687 C   0  0  0  0  0  0  0  0  0  0  0  0
   -1.8568    3.0112   -2.2426 C   0  0  0  0  0  0  0  0  0  0  0  0
   -2.8350    3.7846   -2.8754 C   0  0  0  0  0  0  0  0  0  0  0  0
   -4.1819    3.6556   -2.5446 C   0  0  0  0  0  0  0  0  0  0  0  0
   -4.5773    2.7366   -1.5685 C   0  0  0  0  0  0  0  0  0  0  0  0
   -5.9094    2.6571   -1.2156 O   0  0  0  0  0  0  0  0  0  0  0  0
   -3.6156    1.9314   -0.9159 C   0  0  0  0  0  0  0  0  0  0  0  0
   -0.5342    1.1046   -0.5762 H   0  0  0  0  0  0  0  0  0  0  0  0
   -6.4095    2.9449   -2.0085 H   0  0  0  0  0  0  0  0  0  0  0  0
   -4.8895    0.3480    0.7443 C   0  0  0  0  0  0  0  0  0  0  0  0
   -5.1941   -1.1617    2.6937 N   0  0  0  0  0  0  0  0  0  0  0  0
   -4.6899   -1.0608    1.3028 C   0  0  0  0  0  0  0  0  0  0  0  0
   -6.0973   -0.6611    2.7933 H   0  0  0  0  0  0  0  0  0  0  0  0
   -5.3084   -2.1249    3.0224 H   0  0  0  0  0  0  0  0  0  0  0  0
   -4.5615   -0.6682    3.3390 H   0  0  0  0  0  0  0  0  0  0  0  0
 14 15  1  0
 15 13  1  0
 13  1  1  0
  1  2  2  0
  2  3  1  0
  3  4  1  0
  4  5  2  0
  5  6  1  0
  6  7  2  0
  7  8  1  0
  8  9  1  0
  8 10  2  0
 10  1  1  0
 10  4  1  0
 14 16  1  0
 14 17  1  0
 14 18  1  0
  3 11  1  0
  9 12  1  0
M  CHG 1  14   1
M  END
> <input_smiles>
NCCc1c[nH]c2cccc(O)c12

> <prot_variant_index>
0

> <minimizedAffinity>
0.00000

> <CNNscore>
0.6080315113

> <CNNaffinity>
3.1872484684

> <CNN_VS>
1.9379475117

> <CNNaffinity_variance>
1.1425402164

$$$$
Serotonin__p0


 18 19  0  0  0  0  0  0  0  0999 V2000
    5.2630    3.1979   -4.9174 C   0  0  0  0  0  0  0  0  0  0  0  0
    6.2128    2.1960   -4.8995 C   0  0  0  0  0  0  0  0  0  0  0  0
    5.6744    1.0997   -4.2783 N   0  0  0  0  0  0  0  0  0  0  0  0
    4.3745    1.3570   -3.9098 C   0  0  0  0  0  0  0  0  0  0  0  0
    3.4490    0.5363   -3.2541 C   0  0  0  0  0  0  0  0  0  0  0  0
    2.1816    1.0642   -2.9891 C   0  0  0  0  0  0  0  0  0  0  0  0
    1.8467    2.3615   -3.3697 C   0  0  0  0  0  0  0  0  0  0  0  0
    2.7865    3.1630   -4.0239 C   0  0  0  0  0  0  0  0  0  0  0  0
    2.4228    4.4278   -4.4402 O   0  0  0  0  0  0  0  0  0  0  0  0
    4.0808    2.6645   -4.2987 C   0  0  0  0  0  0  0  0  0  0  0  0
    6.1614    0.2304   -4.0974 H   0  0  0  0  0  0  0  0  0  0  0  0
    1.7121    4.7125   -3.8275 H   0  0  0  0  0  0  0  0  0  0  0  0
    5.4496    4.5821   -5.4543 C   0  0  0  0  0  0  0  0  0  0  0  0
    4.6854    6.3507   -3.8859 N   0  0  0  0  0  0  0  0  0  0  0  0
    5.8597    5.5962   -4.3868 C   0  0  0  0  0  0  0  0  0  0  0  0
    3.8741    5.7184   -3.7509 H   0  0  0  0  0  0  0  0  0  0  0  0
    4.8620    6.8577   -3.0136 H   0  0  0  0  0  0  0  0  0  0  0  0
    4.3640    7.0230   -4.5963 H   0  0  0  0  0  0  0  0  0  0  0  0
 14 15  1  0
 15 13  1  0
 13  1  1  0
  1  2  2  0
  2  3  1  0
  3  4  1  0
  4  5  2  0
  5  6  1  0
  6  7  2  0
  7  8  1  0
  8  9  1  0
  8 10  2  0
 10  1  1  0
 10  4  1  0
 14 16  1  0
 14 17  1  0
 14 18  1  0
  3 11  1  0
  9 12  1  0
M  CHG 1  14   1
M  END
> <input_smiles>
NCCc1c[nH]c2cccc(O)c12

> <prot_variant_index>
0

> <minimizedAffinity>
0.00000

> <CNNscore>
0.6070646644

> <CNNaffinity>
3.2817440033

> <CNN_VS>
1.9922307730

> <CNNaffinity_variance>
1.1439582109

$$$$
Serotonin__p0


 18 19  0  0  0  0  0  0  0  0999 V2000
   -6.5285    0.8020    2.3047 C   0  0  0  0  0  0  0  0  0  0  0  0
   -5.3185    0.3974    2.8325 C   0  0  0  0  0  0  0  0  0  0  0  0
   -4.6935   -0.4071    1.9161 N   0  0  0  0  0  0  0  0  0  0  0  0
   -5.4634   -0.5170    0.7817 C   0  0  0  0  0  0  0  0  0  0  0  0
   -5.2245   -1.2308   -0.3987 C   0  0  0  0  0  0  0  0  0  0  0  0
   -6.1965   -1.1762   -1.4024 C   0  0  0  0  0  0  0  0  0  0  0  0
   -7.3621   -0.4317   -1.2378 C   0  0  0  0  0  0  0  0  0  0  0  0
   -7.5795    0.2738   -0.0509 C   0  0  0  0  0  0  0  0  0  0  0  0
   -8.7152    1.0480    0.0765 O   0  0  0  0  0  0  0  0  0  0  0  0
   -6.6220    0.2326    0.9887 C   0  0  0  0  0  0  0  0  0  0  0  0
   -3.8037   -0.8707    2.0535 H   0  0  0  0  0  0  0  0  0  0  0  0
   -9.3844    0.6317   -0.5070 H   0  0  0  0  0  0  0  0  0  0  0  0
   -7.5534    1.6478    2.9927 C   0  0  0  0  0  0  0  0  0  0  0  0
   -9.8440    0.6958    2.8561 N   0  0  0  0  0  0  0  0  0  0  0  0
   -8.6343    0.8331    3.7027 C   0  0  0  0  0  0  0  0  0  0  0  0
   -9.5818    0.5073    1.8702 H   0  0  0  0  0  0  0  0  0  0  0  0
  -10.4902   -0.0322    3.1745 H   0  0  0  0  0  0  0  0  0  0  0  0
  -10.3529    1.5898    2.8137 H   0  0  0  0  0  0  0  0  0  0  0  0
 14 15  1  0
 15 13  1  0
 13  1  1  0
  1  2  2  0
  2  3  1  0
  3  4  1  0
  4  5  2  0
  5  6  1  0
  6  7  2  0
  7  8  1  0
  8  9  1  0
  8 10  2  0
 10  1  1  0
 10  4  1  0
 14 16  1  0
 14 17  1  0
 14 18  1  0
  3 11  1  0
  9 12  1  0
M  CHG 1  14   1
M  END
> <input_smiles>
NCCc1c[nH]c2cccc(O)c12

> <prot_variant_index>
0

> <minimizedAffinity>
0.00000

> <CNNscore>
0.5994952321

> <CNNaffinity>
3.2857115269

> <CNN_VS>
1.9697684050

> <CNNaffinity_variance>
1.2542334795

$$$$
Serotonin__p0


 18 19  0  0  0  0  0  0  0  0999 V2000
    3.2586    0.4971   -1.6111 C   0  0  0  0  0  0  0  0  0  0  0  0
    2.2750    1.0977   -0.8508 C   0  0  0  0  0  0  0  0  0  0  0  0
    2.6651    2.3817   -0.5736 N   0  0  0  0  0  0  0  0  0  0  0  0
    3.8802    2.6434   -1.1627 C   0  0  0  0  0  0  0  0  0  0  0  0
    4.6523    3.8110   -1.1455 C   0  0  0  0  0  0  0  0  0  0  0  0
    5.8718    3.7971   -1.8296 C   0  0  0  0  0  0  0  0  0  0  0  0
    6.3032    2.6619   -2.5116 C   0  0  0  0  0  0  0  0  0  0  0  0
    5.5155    1.5071   -2.5158 C   0  0  0  0  0  0  0  0  0  0  0  0
    5.9326    0.4076   -3.2387 O   0  0  0  0  0  0  0  0  0  0  0  0
    4.2815    1.4832   -1.8261 C   0  0  0  0  0  0  0  0  0  0  0  0
    2.1487    3.0413   -0.0046 H   0  0  0  0  0  0  0  0  0  0  0  0
    6.9107    0.4686   -3.2699 H   0  0  0  0  0  0  0  0  0  0  0  0
    3.2626   -0.9207   -2.0896 C   0  0  0  0  0  0  0  0  0  0  0  0
    3.5559   -0.9027   -4.5565 N   0  0  0  0  0  0  0  0  0  0  0  0
    2.5895   -1.1033   -3.4497 C   0  0  0  0  0  0  0  0  0  0  0  0
    4.4644   -1.3520   -4.3356 H   0  0  0  0  0  0  0  0  0  0  0  0
    3.2241   -1.2481   -5.4618 H   0  0  0  0  0  0  0  0  0  0  0  0
    3.7867    0.0962   -4.6516 H   0  0  0  0  0  0  0  0  0  0  0  0
 14 15  1  0
 15 13  1  0
 13  1  1  0
  1  2  2  0
  2  3  1  0
  3  4  1  0
  4  5  2  0
  5  6  1  0
  6  7  2  0
  7  8  1  0
  8  9  1  0
  8 10  2  0
 10  1  1  0
 10  4  1  0
 14 16  1  0
 14 17  1  0
 14 18  1  0
  3 11  1  0
  9 12  1  0
M  CHG 1  14   1
M  END
> <input_smiles>
NCCc1c[nH]c2cccc(O)c12

> <prot_variant_index>
0

> <minimizedAffinity>
0.00000

> <CNNscore>
0.5954244733

> <CNNaffinity>
3.2024409771

> <CNN_VS>
1.9068117142

> <CNNaffinity_variance>
0.7694607377

$$$$
Serotonin__p0


 18 19  0  0  0  0  0  0  0  0999 V2000
   -7.8226    1.7867   -0.9946 C   0  0  0  0  0  0  0  0  0  0  0  0
   -8.3686    2.1124   -2.2201 C   0  0  0  0  0  0  0  0  0  0  0  0
   -9.6848    1.7314   -2.2231 N   0  0  0  0  0  0  0  0  0  0  0  0
  -10.0201    1.1827   -1.0072 C   0  0  0  0  0  0  0  0  0  0  0  0
  -11.2417    0.6616   -0.5647 C   0  0  0  0  0  0  0  0  0  0  0  0
  -11.3001    0.1489    0.7349 C   0  0  0  0  0  0  0  0  0  0  0  0
  -10.1823    0.1610    1.5658 C   0  0  0  0  0  0  0  0  0  0  0  0
   -8.9727    0.6870    1.1031 C   0  0  0  0  0  0  0  0  0  0  0  0
   -7.8884    0.7386    1.9558 O   0  0  0  0  0  0  0  0  0  0  0  0
   -8.8756    1.2045   -0.2091 C   0  0  0  0  0  0  0  0  0  0  0  0
  -10.3192    1.8209   -3.0074 H   0  0  0  0  0  0  0  0  0  0  0  0
   -8.0207    0.0067    2.5947 H   0  0  0  0  0  0  0  0  0  0  0  0
   -6.3968    1.9800   -0.5835 C   0  0  0  0  0  0  0  0  0  0  0  0
   -6.3757    3.3109    1.5142 N   0  0  0  0  0  0  0  0  0  0  0  0
   -6.1289    3.3439    0.0523 C   0  0  0  0  0  0  0  0  0  0  0  0
   -6.0035    2.4359    1.9290 H   0  0  0  0  0  0  0  0  0  0  0  0
   -5.9832    4.1121    2.0172 H   0  0  0  0  0  0  0  0  0  0  0  0
   -7.3867    3.2681    1.7042 H   0  0  0  0  0  0  0  0  0  0  0  0
 14 15  1  0
 15 13  1  0
 13  1  1  0
  1  2  2  0
  2  3  1  0
  3  4  1  0
  4  5  2  0
  5  6  1  0
  6  7  2  0
  7  8  1  0
  8  9  1  0
  8 10  2  0
 10  1  1  0
 10  4  1  0
 14 16  1  0
 14 17  1  0
 14 18  1  0
  3 11  1  0
  9 12  1  0
M  CHG 1  14   1
M  END
> <input_smiles>
NCCc1c[nH]c2cccc(O)c12

> <prot_variant_index>
0

> <minimizedAffinity>
0.00000

> <CNNscore>
0.5953473449

> <CNNaffinity>
3.1862633228

> <CNN_VS>
1.8969334364

> <CNNaffinity_variance>
0.9587294459

$$$$
Serotonin__p0


 18 19  0  0  0  0  0  0  0  0999 V2000
    5.2073    1.8411    4.5491 C   0  0  0  0  0  0  0  0  0  0  0  0
    5.5160    0.5115    4.3412 C   0  0  0  0  0  0  0  0  0  0  0  0
    4.7942   -0.2446    5.2271 N   0  0  0  0  0  0  0  0  0  0  0  0
    3.9948    0.5668    5.9982 C   0  0  0  0  0  0  0  0  0  0  0  0
    3.1004    0.2328    7.0221 C   0  0  0  0  0  0  0  0  0  0  0  0
    2.4159    1.2743    7.6562 C   0  0  0  0  0  0  0  0  0  0  0  0
    2.6115    2.6008    7.2788 C   0  0  0  0  0  0  0  0  0  0  0  0
    3.5091    2.9110    6.2533 C   0  0  0  0  0  0  0  0  0  0  0  0
    3.6534    4.2252    5.8564 O   0  0  0  0  0  0  0  0  0  0  0  0
    4.2254    1.8833    5.5975 C   0  0  0  0  0  0  0  0  0  0  0  0
    4.8489   -1.2516    5.3189 H   0  0  0  0  0  0  0  0  0  0  0  0
    3.4313    4.7642    6.6448 H   0  0  0  0  0  0  0  0  0  0  0  0
    5.8088    3.0097    3.8338 C   0  0  0  0  0  0  0  0  0  0  0  0
    8.2471    2.9900    4.3097 N   0  0  0  0  0  0  0  0  0  0  0  0
    6.9583    3.6634    4.6004 C   0  0  0  0  0  0  0  0  0  0  0  0
    8.3250    2.7686    3.2992 H   0  0  0  0  0  0  0  0  0  0  0  0
    9.0688    3.5295    4.5974 H   0  0  0  0  0  0  0  0  0  0  0  0
    8.2810    2.0703    4.7713 H   0  0  0  0  0  0  0  0  0  0  0  0
 14 15  1  0
 15 13  1  0
 13  1  1  0
  1  2  2  0
  2  3  1  0
  3  4  1  0
  4  5  2  0
  5  6  1  0
  6  7  2  0
  7  8  1  0
  8  9  1  0
  8 10  2  0
 10  1  1  0
 10  4  1  0
 14 16  1  0
 14 17  1  0
 14 18  1  0
  3 11  1  0
  9 12  1  0
M  CHG 1  14   1
M  END
> <input_smiles>
NCCc1c[nH]c2cccc(O)c12

> <prot_variant_index>
0

> <minimizedAffinity>
0.00000

> <CNNscore>
0.5850982666

> <CNNaffinity>
3.3743569851

> <CNN_VS>
1.9743304253

> <CNNaffinity_variance>
1.6673607826

$$$$
Serotonin__p0


 18 19  0  0  0  0  0  0  0  0999 V2000
    3.5873   -1.8152   -0.2443 C   0  0  0  0  0  0  0  0  0  0  0  0
    3.7207   -1.1360   -1.4389 C   0  0  0  0  0  0  0  0  0  0  0  0
    3.9705    0.1825   -1.1620 N   0  0  0  0  0  0  0  0  0  0  0  0
    4.0294    0.3762    0.1985 C   0  0  0  0  0  0  0  0  0  0  0  0
    4.2577    1.5488    0.9283 C   0  0  0  0  0  0  0  0  0  0  0  0
    4.2524    1.4603    2.3239 C   0  0  0  0  0  0  0  0  0  0  0  0
    4.0335    0.2452    2.9686 C   0  0  0  0  0  0  0  0  0  0  0  0
    3.8082   -0.9132    2.2195 C   0  0  0  0  0  0  0  0  0  0  0  0
    3.6440   -2.1184    2.8722 O   0  0  0  0  0  0  0  0  0  0  0  0
    3.7969   -0.8579    0.8068 C   0  0  0  0  0  0  0  0  0  0  0  0
    4.0794    0.9159   -1.8518 H   0  0  0  0  0  0  0  0  0  0  0  0
    3.2809   -1.8926    3.7546 H   0  0  0  0  0  0  0  0  0  0  0  0
    3.2575   -3.2661   -0.0854 C   0  0  0  0  0  0  0  0  0  0  0  0
    1.3367   -3.9677   -1.4961 N   0  0  0  0  0  0  0  0  0  0  0  0
    2.8152   -3.9333   -1.3875 C   0  0  0  0  0  0  0  0  0  0  0  0
    0.9250   -3.0697   -1.1791 H   0  0  0  0  0  0  0  0  0  0  0  0
    0.9968   -4.1758   -2.4396 H   0  0  0  0  0  0  0  0  0  0  0  0
    0.9475   -4.6651   -0.8464 H   0  0  0  0  0  0  0  0  0  0  0  0
 14 15  1  0
 15 13  1  0
 13  1  1  0
  1  2  2  0
  2  3  1  0
  3  4  1  0
  4  5  2  0
  5  6  1  0
  6  7  2  0
  7  8  1  0
  8  9  1  0
  8 10  2  0
 10  1  1  0
 10  4  1  0
 14 16  1  0
 14 17  1  0
 14 18  1  0
  3 11  1  0
  9 12  1  0
M  CHG 1  14   1
M  END
> <input_smiles>
NCCc1c[nH]c2cccc(O)c12

> <prot_variant_index>
0

> <minimizedAffinity>
0.00000

> <CNNscore>
0.5847818255

> <CNNaffinity>
3.1566333771

> <CNN_VS>
1.8459417820

> <CNNaffinity_variance>
0.7233121991

$$$$
Serotonin__p0


 18 19  0  0  0  0  0  0  0  0999 V2000
    5.8930    5.0022   -1.0968 C   0  0  0  0  0  0  0  0  0  0  0  0
    5.9916    5.3832   -2.4202 C   0  0  0  0  0  0  0  0  0  0  0  0
    5.3981    4.4203   -3.1936 N   0  0  0  0  0  0  0  0  0  0  0  0
    4.8871    3.4229   -2.3961 C   0  0  0  0  0  0  0  0  0  0  0  0
    4.2059    2.2522   -2.7499 C   0  0  0  0  0  0  0  0  0  0  0  0
    3.8030    1.3953   -1.7210 C   0  0  0  0  0  0  0  0  0  0  0  0
    4.0644    1.6978   -0.3867 C   0  0  0  0  0  0  0  0  0  0  0  0
    4.7457    2.8728   -0.0565 C   0  0  0  0  0  0  0  0  0  0  0  0
    4.9518    3.1835    1.2725 O   0  0  0  0  0  0  0  0  0  0  0  0
    5.1763    3.7569   -1.0725 C   0  0  0  0  0  0  0  0  0  0  0  0
    5.3538    4.4260   -4.2054 H   0  0  0  0  0  0  0  0  0  0  0  0
    4.9720    2.3239    1.7438 H   0  0  0  0  0  0  0  0  0  0  0  0
    6.4553    5.7383    0.0783 C   0  0  0  0  0  0  0  0  0  0  0  0
    8.4858    6.7963    1.0424 N   0  0  0  0  0  0  0  0  0  0  0  0
    7.7970    6.4102   -0.2127 C   0  0  0  0  0  0  0  0  0  0  0  0
    8.3970    6.0471    1.7545 H   0  0  0  0  0  0  0  0  0  0  0  0
    9.4771    7.0214    0.9168 H   0  0  0  0  0  0  0  0  0  0  0  0
    8.0177    7.6068    1.4714 H   0  0  0  0  0  0  0  0  0  0  0  0
 14 15  1  0
 15 13  1  0
 13  1  1  0
  1  2  2  0
  2  3  1  0
  3  4  1  0
  4  5  2  0
  5  6  1  0
  6  7  2  0
  7  8  1  0
  8  9  1  0
  8 10  2  0
 10  1  1  0
 10  4  1  0
 14 16  1  0
 14 17  1  0
 14 18  1  0
  3 11  1  0
  9 12  1  0
M  CHG 1  14   1
M  END
> <input_smiles>
NCCc1c[nH]c2cccc(O)c12

> <prot_variant_index>
0

> <minimizedAffinity>
0.00000

> <CNNscore>
0.5788149238

> <CNNaffinity>
3.1927995682

> <CNN_VS>
1.8480399847

> <CNNaffinity_variance>
1.1232093573

$$$$
Serotonin__p0


 18 19  0  0  0  0  0  0  0  0999 V2000
    5.2073    1.8411   -3.2634 C   0  0  0  0  0  0  0  0  0  0  0  0
    5.8956    0.7423   -3.7380 C   0  0  0  0  0  0  0  0  0  0  0  0
    5.2183   -0.3883   -3.3632 N   0  0  0  0  0  0  0  0  0  0  0  0
    4.0796   -0.0486   -2.6704 C   0  0  0  0  0  0  0  0  0  0  0  0
    3.0976   -0.8684   -2.1018 C   0  0  0  0  0  0  0  0  0  0  0  0
    2.0368   -0.2489   -1.4339 C   0  0  0  0  0  0  0  0  0  0  0  0
    1.9546    1.1385   -1.3416 C   0  0  0  0  0  0  0  0  0  0  0  0
    2.9463    1.9376   -1.9176 C   0  0  0  0  0  0  0  0  0  0  0  0
    2.8238    3.3114   -1.8619 O   0  0  0  0  0  0  0  0  0  0  0  0
    4.0382    1.3440   -2.5917 C   0  0  0  0  0  0  0  0  0  0  0  0
    5.5152   -1.3384   -3.5495 H   0  0  0  0  0  0  0  0  0  0  0  0
    2.2943    3.4962   -1.0575 H   0  0  0  0  0  0  0  0  0  0  0  0
    5.6240    3.2716   -3.4017 C   0  0  0  0  0  0  0  0  0  0  0  0
    7.8069    3.5192   -2.2418 N   0  0  0  0  0  0  0  0  0  0  0  0
    6.3548    3.8116   -2.1727 C   0  0  0  0  0  0  0  0  0  0  0  0
    8.1675    3.6785   -3.2014 H   0  0  0  0  0  0  0  0  0  0  0  0
    8.3692    4.0618   -1.5797 H   0  0  0  0  0  0  0  0  0  0  0  0
    7.9775    2.5180   -2.0729 H   0  0  0  0  0  0  0  0  0  0  0  0
 14 15  1  0
 15 13  1  0
 13  1  1  0
  1  2  2  0
  2  3  1  0
  3  4  1  0
  4  5  2  0
  5  6  1  0
  6  7  2  0
  7  8  1  0
  8  9  1  0
  8 10  2  0
 10  1  1  0
 10  4  1  0
 14 16  1  0
 14 17  1  0
 14 18  1  0
  3 11  1  0
  9 12  1  0
M  CHG 1  14   1
M  END
> <input_smiles>
NCCc1c[nH]c2cccc(O)c12

> <prot_variant_index>
0

> <minimizedAffinity>
0.00000

> <CNNscore>
0.5777592063

> <CNNaffinity>
3.2194273472

> <CNN_VS>
1.8600537777

> <CNNaffinity_variance>
1.2707599401

$$$$
Serotonin__p1


 17 18  0  0  0  0  0  0  0  0999 V2000
   -5.7807    5.4696   -3.3665 C   0  0  0  0  0  0  0  0  0  0  0  0
   -7.0391    5.7798   -3.8474 C   0  0  0  0  0  0  0  0  0  0  0  0
   -7.8892    5.8735   -2.7840 N   0  0  0  0  0  0  0  0  0  0  0  0
   -7.2245    5.6162   -1.6095 C   0  0  0  0  0  0  0  0  0  0  0  0
   -7.7265    5.6100   -0.3042 C   0  0  0  0  0  0  0  0  0  0  0  0
   -6.8356    5.3253    0.7241 C   0  0  0  0  0  0  0  0  0  0  0  0
   -5.4982    5.0514    0.4481 C   0  0  0  0  0  0  0  0  0  0  0  0
   -4.9744    5.0479   -0.8594 C   0  0  0  0  0  0  0  0  0  0  0  0
   -3.7688    4.7764   -1.1638 O   0  0  0  0  0  0  0  0  0  0  0  0
   -5.8843    5.3531   -1.9234 C   0  0  0  0  0  0  0  0  0  0  0  0
   -8.8695    6.1093   -2.8369 H   0  0  0  0  0  0  0  0  0  0  0  0
   -4.5553    5.3148   -4.2155 C   0  0  0  0  0  0  0  0  0  0  0  0
   -4.1159    7.4887   -5.3145 N   0  0  0  0  0  0  0  0  0  0  0  0
   -3.6846    6.5715   -4.2566 C   0  0  0  0  0  0  0  0  0  0  0  0
   -5.1720    7.5740   -5.2634 H   0  0  0  0  0  0  0  0  0  0  0  0
   -4.1102    7.0868   -6.2593 H   0  0  0  0  0  0  0  0  0  0  0  0
   -3.7765    8.4469   -5.3090 H   0  0  0  0  0  0  0  0  0  0  0  0
 13 14  1  0
 14 12  1  0
 12  1  1  0
  1  2  2  0
  2  3  1  0
  3  4  1  0
  4  5  2  0
  5  6  1  0
  6  7  2  0
  7  8  1  0
  8  9  1  0
  8 10  2  0
 10  1  1  0
 10  4  1  0
 13 15  1  0
 13 16  1  0
 13 17  1  0
  3 11  1  0
M  CHG 1   9  -1
M  CHG 1  13   1
M  END
> <input_smiles>
NCCc1c[nH]c2cccc(O)c12

> <prot_variant_index>
1

> <minimizedAffinity>
0.00000

> <CNNscore>
0.7883446813

> <CNNaffinity>
3.5243899822

> <CNN_VS>
2.7784340382

> <CNNaffinity_variance>
1.2857161760

$$$$
Serotonin__p1


 17 18  0  0  0  0  0  0  0  0999 V2000
   -0.6471    0.4971   -1.6111 C   0  0  0  0  0  0  0  0  0  0  0  0
   -0.6063    0.9572   -2.9140 C   0  0  0  0  0  0  0  0  0  0  0  0
    0.6294    0.6818   -3.4235 N   0  0  0  0  0  0  0  0  0  0  0  0
    1.4143    0.0632   -2.4807 C   0  0  0  0  0  0  0  0  0  0  0  0
    2.7350   -0.3814   -2.5979 C   0  0  0  0  0  0  0  0  0  0  0  0
    3.3072   -0.9916   -1.4877 C   0  0  0  0  0  0  0  0  0  0  0  0
    2.5820   -1.1404   -0.3080 C   0  0  0  0  0  0  0  0  0  0  0  0
    1.2530   -0.6952   -0.1682 C   0  0  0  0  0  0  0  0  0  0  0  0
    0.5602   -0.7828    0.8958 O   0  0  0  0  0  0  0  0  0  0  0  0
    0.6525   -0.0767   -1.3128 C   0  0  0  0  0  0  0  0  0  0  0  0
    0.9345    0.8879   -4.3636 H   0  0  0  0  0  0  0  0  0  0  0  0
   -1.8450    0.5757   -0.7139 C   0  0  0  0  0  0  0  0  0  0  0  0
   -1.1639    1.6416    1.4136 N   0  0  0  0  0  0  0  0  0  0  0  0
   -1.8742    1.8390    0.1476 C   0  0  0  0  0  0  0  0  0  0  0  0
   -0.2412    1.1638    1.2004 H   0  0  0  0  0  0  0  0  0  0  0  0
   -1.5240    0.8736    1.9922 H   0  0  0  0  0  0  0  0  0  0  0  0
   -0.9142    2.4522    1.9739 H   0  0  0  0  0  0  0  0  0  0  0  0
 13 14  1  0
 14 12  1  0
 12  1  1  0
  1  2  2  0
  2  3  1  0
  3  4  1  0
  4  5  2  0
  5  6  1  0
  6  7  2  0
  7  8  1  0
  8  9  1  0
  8 10  2  0
 10  1  1  0
 10  4  1  0
 13 15  1  0
 13 16  1  0
 13 17  1  0
  3 11  1  0
M  CHG 1   9  -1
M  CHG 1  13   1
M  END
> <input_smiles>
NCCc1c[nH]c2cccc(O)c12

> <prot_variant_index>
1

> <minimizedAffinity>
0.00000

> <CNNscore>
0.7664374113

> <CNNaffinity>
3.5306208134

> <CNN_VS>
2.7059998512

> <CNNaffinity_variance>
1.4003701210

$$$$
Serotonin__p1


 17 18  0  0  0  0  0  0  0  0999 V2000
   -6.9420   -0.8239    1.3859 C   0  0  0  0  0  0  0  0  0  0  0  0
   -6.4544   -0.7849    0.0930 C   0  0  0  0  0  0  0  0  0  0  0  0
   -5.2401   -1.4076    0.0777 N   0  0  0  0  0  0  0  0  0  0  0  0
   -4.9050   -1.8446    1.3363 C   0  0  0  0  0  0  0  0  0  0  0  0
   -3.7545   -2.5248    1.7481 C   0  0  0  0  0  0  0  0  0  0  0  0
   -3.6586   -2.8675    3.0918 C   0  0  0  0  0  0  0  0  0  0  0  0
   -4.6749   -2.5327    3.9833 C   0  0  0  0  0  0  0  0  0  0  0  0
   -5.8387   -1.8438    3.5896 C   0  0  0  0  0  0  0  0  0  0  0  0
   -6.7797   -1.4914    4.3706 O   0  0  0  0  0  0  0  0  0  0  0  0
   -5.9502   -1.4986    2.2034 C   0  0  0  0  0  0  0  0  0  0  0  0
   -4.6628   -1.5453   -0.7391 H   0  0  0  0  0  0  0  0  0  0  0  0
   -8.2698   -0.2776    1.8156 C   0  0  0  0  0  0  0  0  0  0  0  0
   -9.5445   -1.8670    3.2210 N   0  0  0  0  0  0  0  0  0  0  0  0
   -9.3723   -1.3363    1.8664 C   0  0  0  0  0  0  0  0  0  0  0  0
   -9.5619   -1.0473    3.8941 H   0  0  0  0  0  0  0  0  0  0  0  0
   -8.7012   -2.2900    3.6263 H   0  0  0  0  0  0  0  0  0  0  0  0
  -10.3797   -2.4030    3.4413 H   0  0  0  0  0  0  0  0  0  0  0  0
 13 14  1  0
 14 12  1  0
 12  1  1  0
  1  2  2  0
  2  3  1  0
  3  4  1  0
  4  5  2  0
  5  6  1  0
  6  7  2  0
  7  8  1  0
  8  9  1  0
  8 10  2  0
 10  1  1  0
 10  4  1  0
 13 15  1  0
 13 16  1  0
 13 17  1  0
  3 11  1  0
M  CHG 1   9  -1
M  CHG 1  13   1
M  END
> <input_smiles>
NCCc1c[nH]c2cccc(O)c12

> <prot_variant_index>
1

> <minimizedAffinity>
0.00000

> <CNNscore>
0.7230622172

> <CNNaffinity>
3.3871052265

> <CNN_VS>
2.4490878582

> <CNNaffinity_variance>
1.0918825865

$$$$
Serotonin__p1


 17 18  0  0  0  0  0  0  0  0999 V2000
    0.9388    0.7160   -0.8926 C   0  0  0  0  0  0  0  0  0  0  0  0
    1.6127    0.6501   -2.0977 C   0  0  0  0  0  0  0  0  0  0  0  0
    2.6185    1.5720   -2.0732 N   0  0  0  0  0  0  0  0  0  0  0  0
    2.6158    2.2590   -0.8834 C   0  0  0  0  0  0  0  0  0  0  0  0
    3.4748    3.2784   -0.4605 C   0  0  0  0  0  0  0  0  0  0  0  0
    3.2649    3.8092    0.8069 C   0  0  0  0  0  0  0  0  0  0  0  0
    2.2295    3.3380    1.6105 C   0  0  0  0  0  0  0  0  0  0  0  0
    1.3509    2.3160    1.2012 C   0  0  0  0  0  0  0  0  0  0  0  0
    0.3747    1.8724    1.8867 O   0  0  0  0  0  0  0  0  0  0  0  0
    1.5693    1.7553   -0.0992 C   0  0  0  0  0  0  0  0  0  0  0  0
    3.2861    1.7304   -2.8139 H   0  0  0  0  0  0  0  0  0  0  0  0
   -0.2133   -0.1623   -0.5082 C   0  0  0  0  0  0  0  0  0  0  0  0
   -1.7108   -0.9905   -2.2965 N   0  0  0  0  0  0  0  0  0  0  0  0
   -0.4966   -1.2688   -1.5253 C   0  0  0  0  0  0  0  0  0  0  0  0
   -1.6758    0.0229   -2.6079 H   0  0  0  0  0  0  0  0  0  0  0  0
   -2.5605   -0.8750   -1.7318 H   0  0  0  0  0  0  0  0  0  0  0  0
   -1.8904   -1.5183   -3.1465 H   0  0  0  0  0  0  0  0  0  0  0  0
 13 14  1  0
 14 12  1  0
 12  1  1  0
  1  2  2  0
  2  3  1  0
  3  4  1  0
  4  5  2  0
  5  6  1  0
  6  7  2  0
  7  8  1  0
  8  9  1  0
  8 10  2  0
 10  1  1  0
 10  4  1  0
 13 15  1  0
 13 16  1  0
 13 17  1  0
  3 11  1  0
M  CHG 1   9  -1
M  CHG 1  13   1
M  END
> <input_smiles>
NCCc1c[nH]c2cccc(O)c12

> <prot_variant_index>
1

> <minimizedAffinity>
0.00000

> <CNNscore>
0.7012430429

> <CNNaffinity>
3.3282773495

> <CNN_VS>
2.3339314461

> <CNNaffinity_variance>
1.0871673822

$$$$
Serotonin__p1


 17 18  0  0  0  0  0  0  0  0999 V2000
   -4.4825    2.0244   -2.3107 C   0  0  0  0  0  0  0  0  0  0  0  0
   -4.3182    3.1520   -3.0933 C   0  0  0  0  0  0  0  0  0  0  0  0
   -3.4843    4.0084   -2.4350 N   0  0  0  0  0  0  0  0  0  0  0  0
   -3.1048    3.4794   -1.2252 C   0  0  0  0  0  0  0  0  0  0  0  0
   -2.2637    4.0325   -0.2544 C   0  0  0  0  0  0  0  0  0  0  0  0
   -2.0279    3.2828    0.8922 C   0  0  0  0  0  0  0  0  0  0  0  0
   -2.6203    2.0331    1.0565 C   0  0  0  0  0  0  0  0  0  0  0  0
   -3.4740    1.4609    0.0933 C   0  0  0  0  0  0  0  0  0  0  0  0
   -4.0601    0.3374    0.2103 O   0  0  0  0  0  0  0  0  0  0  0  0
   -3.7113    2.2226   -1.0970 C   0  0  0  0  0  0  0  0  0  0  0  0
   -3.1720    4.9039   -2.7814 H   0  0  0  0  0  0  0  0  0  0  0  0
   -5.2988    0.8280   -2.6960 C   0  0  0  0  0  0  0  0  0  0  0  0
   -5.2203    0.1381   -5.0717 N   0  0  0  0  0  0  0  0  0  0  0  0
   -5.9337    0.9491   -4.0820 C   0  0  0  0  0  0  0  0  0  0  0  0
   -5.0466   -0.8185   -4.6474 H   0  0  0  0  0  0  0  0  0  0  0  0
   -4.2244    0.3656   -5.1752 H   0  0  0  0  0  0  0  0  0  0  0  0
   -5.6603   -0.0507   -5.9685 H   0  0  0  0  0  0  0  0  0  0  0  0
 13 14  1  0
 14 12  1  0
 12  1  1  0
  1  2  2  0
  2  3  1  0
  3  4  1  0
  4  5  2  0
  5  6  1  0
  6  7  2  0
  7  8  1  0
  8  9  1  0
  8 10  2  0
 10  1  1  0
 10  4  1  0
 13 15  1  0
 13 16  1  0
 13 17  1  0
  3 11  1  0
M  CHG 1   9  -1
M  CHG 1  13   1
M  END
> <input_smiles>
NCCc1c[nH]c2cccc(O)c12

> <prot_variant_index>
1

> <minimizedAffinity>
0.00000

> <CNNscore>
0.7000083923

> <CNNaffinity>
3.4225370884

> <CNN_VS>
2.3958046436

> <CNNaffinity_variance>
1.4441860914

$$$$
Serotonin__p1


 17 18  0  0  0  0  0  0  0  0999 V2000
   -9.8324    0.5412   -1.2184 C   0  0  0  0  0  0  0  0  0  0  0  0
  -10.9699    0.4984   -2.0027 C   0  0  0  0  0  0  0  0  0  0  0  0
  -10.9515    1.5779   -2.8373 N   0  0  0  0  0  0  0  0  0  0  0  0
   -9.8338    2.3443   -2.6121 C   0  0  0  0  0  0  0  0  0  0  0  0
   -9.4404    3.5252   -3.2497 C   0  0  0  0  0  0  0  0  0  0  0  0
   -8.2474    4.1088   -2.8394 C   0  0  0  0  0  0  0  0  0  0  0  0
   -7.4875    3.5311   -1.8252 C   0  0  0  0  0  0  0  0  0  0  0  0
   -7.8686    2.3453   -1.1675 C   0  0  0  0  0  0  0  0  0  0  0  0
   -7.2237    1.7958   -0.2178 O   0  0  0  0  0  0  0  0  0  0  0  0
   -9.0910    1.7313   -1.5941 C   0  0  0  0  0  0  0  0  0  0  0  0
  -11.6492    1.7902   -3.5356 H   0  0  0  0  0  0  0  0  0  0  0  0
   -9.4603   -0.4888   -0.1951 C   0  0  0  0  0  0  0  0  0  0  0  0
  -11.2710   -1.7325    0.9453 N   0  0  0  0  0  0  0  0  0  0  0  0
  -10.3726   -1.7160   -0.2119 C   0  0  0  0  0  0  0  0  0  0  0  0
  -11.6858   -0.7620    1.0516 H   0  0  0  0  0  0  0  0  0  0  0  0
  -10.7973   -1.7212    1.8562 H   0  0  0  0  0  0  0  0  0  0  0  0
  -12.0714   -2.3591    0.9430 H   0  0  0  0  0  0  0  0  0  0  0  0
 13 14  1  0
 14 12  1  0
 12  1  1  0
  1  2  2  0
  2  3  1  0
  3  4  1  0
  4  5  2  0
  5  6  1  0
  6  7  2  0
  7  8  1  0
  8  9  1  0
  8 10  2  0
 10  1  1  0
 10  4  1  0
 13 15  1  0
 13 16  1  0
 13 17  1  0
  3 11  1  0
M  CHG 1   9  -1
M  CHG 1  13   1
M  END
> <input_smiles>
NCCc1c[nH]c2cccc(O)c12

> <prot_variant_index>
1

> <minimizedAffinity>
0.00000

> <CNNscore>
0.6993733644

> <CNNaffinity>
3.3635008335

> <CNN_VS>
2.3523428440

> <CNNaffinity_variance>
1.1790846586

$$$$
Serotonin__p1


 17 18  0  0  0  0  0  0  0  0999 V2000
   -1.3005    0.1543   -3.4088 C   0  0  0  0  0  0  0  0  0  0  0  0
   -1.2597    0.6144   -4.7117 C   0  0  0  0  0  0  0  0  0  0  0  0
   -0.0240    0.3391   -5.2211 N   0  0  0  0  0  0  0  0  0  0  0  0
    0.7609   -0.2795   -4.2784 C   0  0  0  0  0  0  0  0  0  0  0  0
    2.0816   -0.7242   -4.3956 C   0  0  0  0  0  0  0  0  0  0  0  0
    2.6538   -1.3343   -3.2854 C   0  0  0  0  0  0  0  0  0  0  0  0
    1.9286   -1.4831   -2.1057 C   0  0  0  0  0  0  0  0  0  0  0  0
    0.5996   -1.0379   -1.9658 C   0  0  0  0  0  0  0  0  0  0  0  0
   -0.0932   -1.1255   -0.9019 O   0  0  0  0  0  0  0  0  0  0  0  0
   -0.0009   -0.4194   -3.1105 C   0  0  0  0  0  0  0  0  0  0  0  0
    0.2811    0.5451   -6.1613 H   0  0  0  0  0  0  0  0  0  0  0  0
   -2.4984    0.2330   -2.5115 C   0  0  0  0  0  0  0  0  0  0  0  0
   -3.1076    2.6138   -2.2172 N   0  0  0  0  0  0  0  0  0  0  0  0
   -2.4820    1.4496   -1.5851 C   0  0  0  0  0  0  0  0  0  0  0  0
   -4.0164    2.2958   -2.6625 H   0  0  0  0  0  0  0  0  0  0  0  0
   -2.6774    2.9037   -3.1033 H   0  0  0  0  0  0  0  0  0  0  0  0
   -3.3644    3.4121   -1.6426 H   0  0  0  0  0  0  0  0  0  0  0  0
 13 14  1  0
 14 12  1  0
 12  1  1  0
  1  2  2  0
  2  3  1  0
  3  4  1  0
  4  5  2  0
  5  6  1  0
  6  7  2  0
  7  8  1  0
  8  9  1  0
  8 10  2  0
 10  1  1  0
 10  4  1  0
 13 15  1  0
 13 16  1  0
 13 17  1  0
  3 11  1  0
M  CHG 1   9  -1
M  CHG 1  13   1
M  END
> <input_smiles>
NCCc1c[nH]c2cccc(O)c12

> <prot_variant_index>
1

> <minimizedAffinity>
0.00000

> <CNNscore>
0.6980724335

> <CNNaffinity>
3.3811919689

> <CNN_VS>
2.3603169918

> <CNNaffinity_variance>
0.9393061996

$$$$
Serotonin__p1


 17 18  0  0  0  0  0  0  0  0999 V2000
   -1.3005    0.1543   -3.4088 C   0  0  0  0  0  0  0  0  0  0  0  0
   -1.4694    1.2977   -4.1671 C   0  0  0  0  0  0  0  0  0  0  0  0
   -1.6069    2.3556   -3.3161 N   0  0  0  0  0  0  0  0  0  0  0  0
   -1.5486    1.9357   -2.0093 C   0  0  0  0  0  0  0  0  0  0  0  0
   -1.6459    2.6981   -0.8409 C   0  0  0  0  0  0  0  0  0  0  0  0
   -1.5450    2.0276    0.3725 C   0  0  0  0  0  0  0  0  0  0  0  0
   -1.3615    0.6474    0.4069 C   0  0  0  0  0  0  0  0  0  0  0  0
   -1.2661   -0.1387   -0.7580 C   0  0  0  0  0  0  0  0  0  0  0  0
   -1.1271   -1.4036   -0.7776 O   0  0  0  0  0  0  0  0  0  0  0  0
   -1.3564    0.5476   -2.0126 C   0  0  0  0  0  0  0  0  0  0  0  0
   -1.7242    3.3192   -3.5938 H   0  0  0  0  0  0  0  0  0  0  0  0
   -1.0787   -1.2180   -3.9690 C   0  0  0  0  0  0  0  0  0  0  0  0
   -2.1125   -1.7840   -6.1455 N   0  0  0  0  0  0  0  0  0  0  0  0
   -0.9236   -1.2330   -5.4904 C   0  0  0  0  0  0  0  0  0  0  0  0
   -2.9669   -1.3386   -5.7018 H   0  0  0  0  0  0  0  0  0  0  0  0
   -2.3571   -2.7389   -5.8578 H   0  0  0  0  0  0  0  0  0  0  0  0
   -2.2366   -1.6467   -7.1451 H   0  0  0  0  0  0  0  0  0  0  0  0
 13 14  1  0
 14 12  1  0
 12  1  1  0
  1  2  2  0
  2  3  1  0
  3  4  1  0
  4  5  2  0
  5  6  1  0
  6  7  2  0
  7  8  1  0
  8  9  1  0
  8 10  2  0
 10  1  1  0
 10  4  1  0
 13 15  1  0
 13 16  1  0
 13 17  1  0
  3 11  1  0
M  CHG 1   9  -1
M  CHG 1  13   1
M  END
> <input_smiles>
NCCc1c[nH]c2cccc(O)c12

> <prot_variant_index>
1

> <minimizedAffinity>
0.00000

> <CNNscore>
0.6962352991

> <CNNaffinity>
3.3988113403

> <CNN_VS>
2.3663723469

> <CNNaffinity_variance>
1.3755254745

$$$$
Serotonin__p1


 17 18  0  0  0  0  0  0  0  0999 V2000
   -0.3727    2.1511   -1.1132 C   0  0  0  0  0  0  0  0  0  0  0  0
   -0.8415    2.8805   -2.1898 C   0  0  0  0  0  0  0  0  0  0  0  0
    0.2302    3.2632   -2.9429 N   0  0  0  0  0  0  0  0  0  0  0  0
    1.4011    2.8166   -2.3798 C   0  0  0  0  0  0  0  0  0  0  0  0
    2.7122    2.9924   -2.8336 C   0  0  0  0  0  0  0  0  0  0  0  0
    3.7333    2.4269   -2.0788 C   0  0  0  0  0  0  0  0  0  0  0  0
    3.4458    1.7210   -0.9131 C   0  0  0  0  0  0  0  0  0  0  0  0
    2.1331    1.5370   -0.4367 C   0  0  0  0  0  0  0  0  0  0  0  0
    1.8229    0.9257    0.6355 O   0  0  0  0  0  0  0  0  0  0  0  0
    1.0745    2.1065   -1.2167 C   0  0  0  0  0  0  0  0  0  0  0  0
    0.1835    3.7912   -3.8022 H   0  0  0  0  0  0  0  0  0  0  0  0
   -1.2393    1.5190   -0.0664 C   0  0  0  0  0  0  0  0  0  0  0  0
   -2.5322    3.3012    1.0644 N   0  0  0  0  0  0  0  0  0  0  0  0
   -1.3996    2.3799    1.1874 C   0  0  0  0  0  0  0  0  0  0  0  0
   -3.3584    2.7554    0.6840 H   0  0  0  0  0  0  0  0  0  0  0  0
   -2.4791    3.9416    0.2636 H   0  0  0  0  0  0  0  0  0  0  0  0
   -2.8870    3.7648    1.8966 H   0  0  0  0  0  0  0  0  0  0  0  0
 13 14  1  0
 14 12  1  0
 12  1  1  0
  1  2  2  0
  2  3  1  0
  3  4  1  0
  4  5  2  0
  5  6  1  0
  6  7  2  0
  7  8  1  0
  8  9  1  0
  8 10  2  0
 10  1  1  0
 10  4  1  0
 13 15  1  0
 13 16  1  0
 13 17  1  0
  3 11  1  0
M  CHG 1   9  -1
M  CHG 1  13   1
M  END
> <input_smiles>
NCCc1c[nH]c2cccc(O)c12

> <prot_variant_index>
1

> <minimizedAffinity>
0.00000

> <CNNscore>
0.6942498088

> <CNNaffinity>
3.3288180828

> <CNN_VS>
2.3110313416

> <CNNaffinity_variance>
1.1655262709

$$$$
Serotonin__p1


 17 18  0  0  0  0  0  0  0  0999 V2000
   -6.5287    0.8018    2.3048 C   0  0  0  0  0  0  0  0  0  0  0  0
   -5.4255    0.4158    1.5666 C   0  0  0  0  0  0  0  0  0  0  0  0
   -4.4612   -0.0086    2.4340 N   0  0  0  0  0  0  0  0  0  0  0  0
   -4.8958    0.1029    3.7325 C   0  0  0  0  0  0  0  0  0  0  0  0
   -4.2186   -0.2227    4.9121 C   0  0  0  0  0  0  0  0  0  0  0  0
   -4.8899   -0.0230    6.1128 C   0  0  0  0  0  0  0  0  0  0  0  0
   -6.1848    0.4896    6.1245 C   0  0  0  0  0  0  0  0  0  0  0  0
   -6.8819    0.8282    4.9483 C   0  0  0  0  0  0  0  0  0  0  0  0
   -8.0529    1.3251    4.9092 O   0  0  0  0  0  0  0  0  0  0  0  0
   -6.2008    0.6130    3.7061 C   0  0  0  0  0  0  0  0  0  0  0  0
   -3.5546   -0.3675    2.1719 H   0  0  0  0  0  0  0  0  0  0  0  0
   -7.8174    1.2967    1.7209 C   0  0  0  0  0  0  0  0  0  0  0  0
   -9.7975    0.1965    2.7184 N   0  0  0  0  0  0  0  0  0  0  0  0
   -8.8769    0.2031    1.5787 C   0  0  0  0  0  0  0  0  0  0  0  0
  -10.0886    1.1984    2.9099 H   0  0  0  0  0  0  0  0  0  0  0  0
   -9.3480    0.0640    3.6320 H   0  0  0  0  0  0  0  0  0  0  0  0
  -10.6704   -0.3196    2.6480 H   0  0  0  0  0  0  0  0  0  0  0  0
 13 14  1  0
 14 12  1  0
 12  1  1  0
  1  2  2  0
  2  3  1  0
  3  4  1  0
  4  5  2  0
  5  6  1  0
  6  7  2  0
  7  8  1  0
  8  9  1  0
  8 10  2  0
 10  1  1  0
 10  4  1  0
 13 15  1  0
 13 16  1  0
 13 17  1  0
  3 11  1  0
M  CHG 1   9  -1
M  CHG 1  13   1
M  END
> <input_smiles>
NCCc1c[nH]c2cccc(O)c12

> <prot_variant_index>
1

> <minimizedAffinity>
0.00000

> <CNNscore>
0.6876963377

> <CNNaffinity>
3.3662557602

> <CNN_VS>
2.3149616718

> <CNNaffinity_variance>
1.2817908525

$$$$
Serotonin__p1


 17 18  0  0  0  0  0  0  0  0999 V2000
    7.0023   -1.0365    3.0396 C   0  0  0  0  0  0  0  0  0  0  0  0
    7.4396   -2.3441    2.9402 C   0  0  0  0  0  0  0  0  0  0  0  0
    6.9339   -3.0429    3.9977 N   0  0  0  0  0  0  0  0  0  0  0  0
    6.1836   -2.2226    4.8050 C   0  0  0  0  0  0  0  0  0  0  0  0
    5.4978   -2.5429    5.9809 C   0  0  0  0  0  0  0  0  0  0  0  0
    4.7968   -1.5223    6.6127 C   0  0  0  0  0  0  0  0  0  0  0  0
    4.7933   -0.2329    6.0860 C   0  0  0  0  0  0  0  0  0  0  0  0
    5.4814    0.1110    4.9062 C   0  0  0  0  0  0  0  0  0  0  0  0
    5.5314    1.2787    4.4023 O   0  0  0  0  0  0  0  0  0  0  0  0
    6.1958   -0.9390    4.2426 C   0  0  0  0  0  0  0  0  0  0  0  0
    7.0738   -4.0279    4.1695 H   0  0  0  0  0  0  0  0  0  0  0  0
    7.3097    0.0454    2.0490 C   0  0  0  0  0  0  0  0  0  0  0  0
    6.8291   -0.6295   -0.2834 N   0  0  0  0  0  0  0  0  0  0  0  0
    7.8764   -0.4840    0.7308 C   0  0  0  0  0  0  0  0  0  0  0  0
    6.2388    0.2517   -0.2732 H   0  0  0  0  0  0  0  0  0  0  0  0
    6.0565   -1.2508   -0.0160 H   0  0  0  0  0  0  0  0  0  0  0  0
    7.0950   -0.7539   -1.2566 H   0  0  0  0  0  0  0  0  0  0  0  0
 13 14  1  0
 14 12  1  0
 12  1  1  0
  1  2  2  0
  2  3  1  0
  3  4  1  0
  4  5  2  0
  5  6  1  0
  6  7  2  0
  7  8  1  0
  8  9  1  0
  8 10  2  0
 10  1  1  0
 10  4  1  0
 13 15  1  0
 13 16  1  0
 13 17  1  0
  3 11  1  0
M  CHG 1   9  -1
M  CHG 1  13   1
M  END
> <input_smiles>
NCCc1c[nH]c2cccc(O)c12

> <prot_variant_index>
1

> <minimizedAffinity>
0.00000

> <CNNscore>
0.6857380867

> <CNNaffinity>
3.3456275463

> <CNN_VS>
2.2942242622

> <CNNaffinity_variance>
1.2276593447

$$$$
Serotonin__p1


 17 18  0  0  0  0  0  0  0  0999 V2000
   -0.4404    1.2169   -0.1663 C   0  0  0  0  0  0  0  0  0  0  0  0
    0.3113    2.0356   -0.9882 C   0  0  0  0  0  0  0  0  0  0  0  0
    0.3333    3.2846   -0.4388 N   0  0  0  0  0  0  0  0  0  0  0  0
   -0.4013    3.3153    0.7218 C   0  0  0  0  0  0  0  0  0  0  0  0
   -0.6301    4.3928    1.5834 C   0  0  0  0  0  0  0  0  0  0  0  0
   -1.4101    4.1588    2.7098 C   0  0  0  0  0  0  0  0  0  0  0  0
   -1.9427    2.8951    2.9534 C   0  0  0  0  0  0  0  0  0  0  0  0
   -1.7282    1.7986    2.0958 C   0  0  0  0  0  0  0  0  0  0  0  0
   -2.2159    0.6346    2.2604 O   0  0  0  0  0  0  0  0  0  0  0  0
   -0.9143    2.0295    0.9392 C   0  0  0  0  0  0  0  0  0  0  0  0
    0.8257    4.0815   -0.8154 H   0  0  0  0  0  0  0  0  0  0  0  0
   -0.6768   -0.2445   -0.4005 C   0  0  0  0  0  0  0  0  0  0  0  0
   -3.1125   -0.6742   -0.3053 N   0  0  0  0  0  0  0  0  0  0  0  0
   -1.9540   -0.5321   -1.1909 C   0  0  0  0  0  0  0  0  0  0  0  0
   -3.0880    0.1213    0.3960 H   0  0  0  0  0  0  0  0  0  0  0  0
   -3.0232   -1.4125    0.4026 H   0  0  0  0  0  0  0  0  0  0  0  0
   -4.0475   -0.6425   -0.7029 H   0  0  0  0  0  0  0  0  0  0  0  0
 13 14  1  0
 14 12  1  0
 12  1  1  0
  1  2  2  0
  2  3  1  0
  3  4  1  0
  4  5  2  0
  5  6  1  0
  6  7  2  0
  7  8  1  0
  8  9  1  0
  8 10  2  0
 10  1  1  0
 10  4  1  0
 13 15  1  0
 13 16  1  0
 13 17  1  0
  3 11  1  0
M  CHG 1   9  -1
M  CHG 1  13   1
M  END
> <input_smiles>
NCCc1c[nH]c2cccc(O)c12

> <prot_variant_index>
1

> <minimizedAffinity>
0.00000

> <CNNscore>
0.6831318140

> <CNNaffinity>
3.3030817509

> <CNN_VS>
2.2564401627

> <CNNaffinity_variance>
1.0250058174

$$$$
Serotonin__p1


 17 18  0  0  0  0  0  0  0  0999 V2000
   -3.9027    5.5808   -4.7050 C   0  0  0  0  0  0  0  0  0  0  0  0
   -5.1611    5.8910   -5.1858 C   0  0  0  0  0  0  0  0  0  0  0  0
   -6.0112    5.9847   -4.1224 N   0  0  0  0  0  0  0  0  0  0  0  0
   -5.3465    5.7275   -2.9479 C   0  0  0  0  0  0  0  0  0  0  0  0
   -5.8485    5.7213   -1.6426 C   0  0  0  0  0  0  0  0  0  0  0  0
   -4.9576    5.4366   -0.6143 C   0  0  0  0  0  0  0  0  0  0  0  0
   -3.6202    5.1627   -0.8903 C   0  0  0  0  0  0  0  0  0  0  0  0
   -3.0964    5.1591   -2.1978 C   0  0  0  0  0  0  0  0  0  0  0  0
   -1.8908    4.8876   -2.5022 O   0  0  0  0  0  0  0  0  0  0  0  0
   -4.0064    5.4644   -3.2618 C   0  0  0  0  0  0  0  0  0  0  0  0
   -6.9915    6.2205   -4.1753 H   0  0  0  0  0  0  0  0  0  0  0  0
   -2.6773    5.4261   -5.5540 C   0  0  0  0  0  0  0  0  0  0  0  0
   -0.7277    6.6580   -4.6552 N   0  0  0  0  0  0  0  0  0  0  0  0
   -1.8257    6.6943   -5.6246 C   0  0  0  0  0  0  0  0  0  0  0  0
   -0.2682    5.7039   -4.7166 H   0  0  0  0  0  0  0  0  0  0  0  0
   -1.0220    6.5463   -3.6779 H   0  0  0  0  0  0  0  0  0  0  0  0
    0.0367    7.3218   -4.7465 H   0  0  0  0  0  0  0  0  0  0  0  0
 13 14  1  0
 14 12  1  0
 12  1  1  0
  1  2  2  0
  2  3  1  0
  3  4  1  0
  4  5  2  0
  5  6  1  0
  6  7  2  0
  7  8  1  0
  8  9  1  0
  8 10  2  0
 10  1  1  0
 10  4  1  0
 13 15  1  0
 13 16  1  0
 13 17  1  0
  3 11  1  0
M  CHG 1   9  -1
M  CHG 1  13   1
M  END
> <input_smiles>
NCCc1c[nH]c2cccc(O)c12

> <prot_variant_index>
1

> <minimizedAffinity>
0.00000

> <CNNscore>
0.6804670095

> <CNNaffinity>
3.3297472000

> <CNN_VS>
2.2657830715

> <CNNaffinity_variance>
1.1409448385

$$$$
Serotonin__p1


 17 18  0  0  0  0  0  0  0  0999 V2000
   -3.2014    6.9196    4.0701 C   0  0  0  0  0  0  0  0  0  0  0  0
   -3.2973    7.8333    3.0372 C   0  0  0  0  0  0  0  0  0  0  0  0
   -4.4302    7.5564    2.3286 N   0  0  0  0  0  0  0  0  0  0  0  0
   -5.0791    6.4684    2.8602 C   0  0  0  0  0  0  0  0  0  0  0  0
   -6.2666    5.8647    2.4344 C   0  0  0  0  0  0  0  0  0  0  0  0
   -6.7240    4.7690    3.1571 C   0  0  0  0  0  0  0  0  0  0  0  0
   -6.0113    4.2975    4.2569 C   0  0  0  0  0  0  0  0  0  0  0  0
   -4.8113    4.8880    4.6985 C   0  0  0  0  0  0  0  0  0  0  0  0
   -4.1108    4.4769    5.6784 O   0  0  0  0  0  0  0  0  0  0  0  0
   -4.3406    6.0260    3.9659 C   0  0  0  0  0  0  0  0  0  0  0  0
   -4.7634    8.0767    1.5301 H   0  0  0  0  0  0  0  0  0  0  0  0
   -2.1140    6.9063    5.1015 C   0  0  0  0  0  0  0  0  0  0  0  0
   -1.1359    4.6341    5.1844 N   0  0  0  0  0  0  0  0  0  0  0  0
   -0.9332    6.0103    4.7247 C   0  0  0  0  0  0  0  0  0  0  0  0
   -2.1249    4.3464    4.9307 H   0  0  0  0  0  0  0  0  0  0  0  0
   -1.2777    4.5365    6.1967 H   0  0  0  0  0  0  0  0  0  0  0  0
   -0.5458    3.8948    4.8122 H   0  0  0  0  0  0  0  0  0  0  0  0
 13 14  1  0
 14 12  1  0
 12  1  1  0
  1  2  2  0
  2  3  1  0
  3  4  1  0
  4  5  2  0
  5  6  1  0
  6  7  2  0
  7  8  1  0
  8  9  1  0
  8 10  2  0
 10  1  1  0
 10  4  1  0
 13 15  1  0
 13 16  1  0
 13 17  1  0
  3 11  1  0
M  CHG 1   9  -1
M  CHG 1  13   1
M  END
> <input_smiles>
NCCc1c[nH]c2cccc(O)c12

> <prot_variant_index>
1

> <minimizedAffinity>
0.00000

> <CNNscore>
0.6779404283

> <CNNaffinity>
3.2961170673

> <CNN_VS>
2.2345709801

> <CNNaffinity_variance>
0.9424442649

$$$$
Serotonin__p1


 17 18  0  0  0  0  0  0  0  0999 V2000
   -6.1504    1.0003   -0.0000 C   0  0  0  0  0  0  0  0  0  0  0  0
   -5.1233    1.9245    0.0420 C   0  0  0  0  0  0  0  0  0  0  0  0
   -3.9398    1.2453    0.0368 N   0  0  0  0  0  0  0  0  0  0  0  0
   -4.1605   -0.1104    0.0084 C   0  0  0  0  0  0  0  0  0  0  0  0
   -3.2236   -1.1487   -0.0062 C   0  0  0  0  0  0  0  0  0  0  0  0
   -3.7094   -2.4504   -0.0452 C   0  0  0  0  0  0  0  0  0  0  0  0
   -5.0804   -2.6953   -0.0612 C   0  0  0  0  0  0  0  0  0  0  0  0
   -6.0398   -1.6643   -0.0420 C   0  0  0  0  0  0  0  0  0  0  0  0
   -7.3005   -1.8382   -0.0268 O   0  0  0  0  0  0  0  0  0  0  0  0
   -5.5460   -0.3194   -0.0148 C   0  0  0  0  0  0  0  0  0  0  0  0
   -3.0224    1.6670    0.0414 H   0  0  0  0  0  0  0  0  0  0  0  0
   -7.6085    1.3440   -0.0452 C   0  0  0  0  0  0  0  0  0  0  0  0
   -8.0268    2.6069   -2.1325 N   0  0  0  0  0  0  0  0  0  0  0  0
   -8.1933    1.3170   -1.4581 C   0  0  0  0  0  0  0  0  0  0  0  0
   -7.0295    2.9323   -1.9751 H   0  0  0  0  0  0  0  0  0  0  0  0
   -8.4526    3.4039   -1.6449 H   0  0  0  0  0  0  0  0  0  0  0  0
   -8.1632    2.6620   -3.1383 H   0  0  0  0  0  0  0  0  0  0  0  0
 13 14  1  0
 14 12  1  0
 12  1  1  0
  1  2  2  0
  2  3  1  0
  3  4  1  0
  4  5  2  0
  5  6  1  0
  6  7  2  0
  7  8  1  0
  8  9  1  0
  8 10  2  0
 10  1  1  0
 10  4  1  0
 13 15  1  0
 13 16  1  0
 13 17  1  0
  3 11  1  0
M  CHG 1   9  -1
M  CHG 1  13   1
M  END
> <input_smiles>
NCCc1c[nH]c2cccc(O)c12

> <prot_variant_index>
1

> <minimizedAffinity>
0.00000

> <CNNscore>
0.6774964929

> <CNNaffinity>
3.2572543621

> <CNN_VS>
2.2067782879

> <CNNaffinity_variance>
0.9100701213

$$$$
Serotonin__p1


 17 18  0  0  0  0  0  0  0  0999 V2000
    6.0643    2.1168    3.6575 C   0  0  0  0  0  0  0  0  0  0  0  0
    5.9900    2.2460    2.2832 C   0  0  0  0  0  0  0  0  0  0  0  0
    7.0965    1.6597    1.7408 N   0  0  0  0  0  0  0  0  0  0  0  0
    7.9108    1.1585    2.7272 C   0  0  0  0  0  0  0  0  0  0  0  0
    9.1311    0.4878    2.5967 C   0  0  0  0  0  0  0  0  0  0  0  0
    9.7605    0.0689    3.7631 C   0  0  0  0  0  0  0  0  0  0  0  0
    9.1885    0.3216    5.0076 C   0  0  0  0  0  0  0  0  0  0  0  0
    7.9634    0.9996    5.1605 C   0  0  0  0  0  0  0  0  0  0  0  0
    7.4158    1.2786    6.2750 O   0  0  0  0  0  0  0  0  0  0  0  0
    7.3025    1.4231    3.9616 C   0  0  0  0  0  0  0  0  0  0  0  0
    7.2964    1.5869    0.7538 H   0  0  0  0  0  0  0  0  0  0  0  0
    5.0208    2.5992    4.6191 C   0  0  0  0  0  0  0  0  0  0  0  0
    6.1216    4.0066    6.3319 N   0  0  0  0  0  0  0  0  0  0  0  0
    5.2798    4.0162    5.1329 C   0  0  0  0  0  0  0  0  0  0  0  0
    6.9337    3.3470    6.1566 H   0  0  0  0  0  0  0  0  0  0  0  0
    5.7426    3.4654    7.1178 H   0  0  0  0  0  0  0  0  0  0  0  0
    6.5524    4.8735    6.6425 H   0  0  0  0  0  0  0  0  0  0  0  0
 13 14  1  0
 14 12  1  0
 12  1  1  0
  1  2  2  0
  2  3  1  0
  3  4  1  0
  4  5  2  0
  5  6  1  0
  6  7  2  0
  7  8  1  0
  8  9  1  0
  8 10  2  0
 10  1  1  0
 10  4  1  0
 13 15  1  0
 13 16  1  0
 13 17  1  0
  3 11  1  0
M  CHG 1   9  -1
M  CHG 1  13   1
M  END
> <input_smiles>
NCCc1c[nH]c2cccc(O)c12

> <prot_variant_index>
1

> <minimizedAffinity>
0.00000

> <CNNscore>
0.6769943237

> <CNNaffinity>
3.4768600464

> <CNN_VS>
2.3538146019

> <CNNaffinity_variance>
1.5075577497

$$$$
Serotonin__p1


 17 18  0  0  0  0  0  0  0  0999 V2000
    6.1730    0.5465    3.6494 C   0  0  0  0  0  0  0  0  0  0  0  0
    6.9967    0.4126    2.5473 C   0  0  0  0  0  0  0  0  0  0  0  0
    7.7893   -0.6815    2.7396 N   0  0  0  0  0  0  0  0  0  0  0  0
    7.5198   -1.2666    3.9531 C   0  0  0  0  0  0  0  0  0  0  0  0
    8.1057   -2.3994    4.5269 C   0  0  0  0  0  0  0  0  0  0  0  0
    7.6437   -2.7974    5.7760 C   0  0  0  0  0  0  0  0  0  0  0  0
    6.6397   -2.0803    6.4221 C   0  0  0  0  0  0  0  0  0  0  0  0
    6.0405   -0.9345    5.8637 C   0  0  0  0  0  0  0  0  0  0  0  0
    5.1417   -0.2308    6.4265 O   0  0  0  0  0  0  0  0  0  0  0  0
    6.5029   -0.5258    4.5704 C   0  0  0  0  0  0  0  0  0  0  0  0
    8.4745   -1.0306    2.0854 H   0  0  0  0  0  0  0  0  0  0  0  0
    5.1267    1.6075    3.8108 C   0  0  0  0  0  0  0  0  0  0  0  0
    4.4558    3.0572    1.9202 N   0  0  0  0  0  0  0  0  0  0  0  0
    4.2329    1.7684    2.5803 C   0  0  0  0  0  0  0  0  0  0  0  0
    5.5028    3.2080    1.8412 H   0  0  0  0  0  0  0  0  0  0  0  0
    4.2980    3.8777    2.5170 H   0  0  0  0  0  0  0  0  0  0  0  0
    4.1001    3.2004    0.9787 H   0  0  0  0  0  0  0  0  0  0  0  0
 13 14  1  0
 14 12  1  0
 12  1  1  0
  1  2  2  0
  2  3  1  0
  3  4  1  0
  4  5  2  0
  5  6  1  0
  6  7  2  0
  7  8  1  0
  8  9  1  0
  8 10  2  0
 10  1  1  0
 10  4  1  0
 13 15  1  0
 13 16  1  0
 13 17  1  0
  3 11  1  0
M  CHG 1   9  -1
M  CHG 1  13   1
M  END
> <input_smiles>
NCCc1c[nH]c2cccc(O)c12

> <prot_variant_index>
1

> <minimizedAffinity>
0.00000

> <CNNscore>
0.6767635942

> <CNNaffinity>
3.2711200714

> <CNN_VS>
2.2137749195

> <CNNaffinity_variance>
0.8869132400

$$$$
Serotonin__p1


 17 18  0  0  0  0  0  0  0  0999 V2000
   -7.9004    0.0436   -1.0861 C   0  0  0  0  0  0  0  0  0  0  0  0
   -6.7831    0.7028   -1.5638 C   0  0  0  0  0  0  0  0  0  0  0  0
   -5.6960   -0.0940   -1.3502 N   0  0  0  0  0  0  0  0  0  0  0  0
   -6.0666   -1.2607   -0.7266 C   0  0  0  0  0  0  0  0  0  0  0  0
   -5.2628   -2.3357   -0.3340 C   0  0  0  0  0  0  0  0  0  0  0  0
   -5.8895   -3.4154    0.2771 C   0  0  0  0  0  0  0  0  0  0  0  0
   -7.2659   -3.4087    0.4901 C   0  0  0  0  0  0  0  0  0  0  0  0
   -8.0919   -2.3342    0.1068 C   0  0  0  0  0  0  0  0  0  0  0  0
   -9.3474   -2.2695    0.3052 O   0  0  0  0  0  0  0  0  0  0  0  0
   -7.4543   -1.2231   -0.5353 C   0  0  0  0  0  0  0  0  0  0  0  0
   -4.7475    0.1253   -1.6180 H   0  0  0  0  0  0  0  0  0  0  0  0
   -9.3019    0.5689   -1.1654 C   0  0  0  0  0  0  0  0  0  0  0  0
   -9.8852    0.8109   -3.5586 N   0  0  0  0  0  0  0  0  0  0  0  0
  -10.0919    0.0098   -2.3495 C   0  0  0  0  0  0  0  0  0  0  0  0
   -8.8455    0.9988   -3.6532 H   0  0  0  0  0  0  0  0  0  0  0  0
  -10.1410    1.8010   -3.4660 H   0  0  0  0  0  0  0  0  0  0  0  0
  -10.1644    0.4309   -4.4592 H   0  0  0  0  0  0  0  0  0  0  0  0
 13 14  1  0
 14 12  1  0
 12  1  1  0
  1  2  2  0
  2  3  1  0
  3  4  1  0
  4  5  2  0
  5  6  1  0
  6  7  2  0
  7  8  1  0
  8  9  1  0
  8 10  2  0
 10  1  1  0
 10  4  1  0
 13 15  1  0
 13 16  1  0
 13 17  1  0
  3 11  1  0
M  CHG 1   9  -1
M  CHG 1  13   1
M  END
> <input_smiles>
NCCc1c[nH]c2cccc(O)c12

> <prot_variant_index>
1

> <minimizedAffinity>
0.00000

> <CNNscore>
0.6660215855

> <CNNaffinity>
3.3503859043

> <CNN_VS>
2.2314293385

> <CNNaffinity_variance>
1.2027660608

$$$$
Serotonin__p1


 17 18  0  0  0  0  0  0  0  0999 V2000
   -4.9180    5.7073    5.6057 C   0  0  0  0  0  0  0  0  0  0  0  0
   -4.8162    6.2780    6.8606 C   0  0  0  0  0  0  0  0  0  0  0  0
   -6.0442    6.2233    7.4533 N   0  0  0  0  0  0  0  0  0  0  0  0
   -6.9619    5.6429    6.6116 C   0  0  0  0  0  0  0  0  0  0  0  0
   -8.3210    5.3998    6.8342 C   0  0  0  0  0  0  0  0  0  0  0  0
   -9.0375    4.7836    5.8148 C   0  0  0  0  0  0  0  0  0  0  0  0
   -8.4129    4.4344    4.6200 C   0  0  0  0  0  0  0  0  0  0  0  0
   -7.0470    4.6750    4.3745 C   0  0  0  0  0  0  0  0  0  0  0  0
   -6.4390    4.4006    3.2906 O   0  0  0  0  0  0  0  0  0  0  0  0
   -6.2992    5.2984    5.4259 C   0  0  0  0  0  0  0  0  0  0  0  0
   -6.2603    6.5495    8.3840 H   0  0  0  0  0  0  0  0  0  0  0  0
   -3.7778    5.5402    4.6474 C   0  0  0  0  0  0  0  0  0  0  0  0
   -3.6750    3.2564    3.6987 N   0  0  0  0  0  0  0  0  0  0  0  0
   -3.1274    4.1578    4.7156 C   0  0  0  0  0  0  0  0  0  0  0  0
   -3.7103    3.7835    2.7789 H   0  0  0  0  0  0  0  0  0  0  0  0
   -4.6905    3.1150    3.7531 H   0  0  0  0  0  0  0  0  0  0  0  0
   -3.1837    2.3924    3.4853 H   0  0  0  0  0  0  0  0  0  0  0  0
 13 14  1  0
 14 12  1  0
 12  1  1  0
  1  2  2  0
  2  3  1  0
  3  4  1  0
  4  5  2  0
  5  6  1  0
  6  7  2  0
  7  8  1  0
  8  9  1  0
  8 10  2  0
 10  1  1  0
 10  4  1  0
 13 15  1  0
 13 16  1  0
 13 17  1  0
  3 11  1  0
M  CHG 1   9  -1
M  CHG 1  13   1
M  END
> <input_smiles>
NCCc1c[nH]c2cccc(O)c12

> <prot_variant_index>
1

> <minimizedAffinity>
0.00000

> <CNNscore>
0.6654833555

> <CNNaffinity>
3.2834780216

> <CNN_VS>
2.1851000786

> <CNNaffinity_variance>
1.0830413103

$$$$
Serotonin__p1


 17 18  0  0  0  0  0  0  0  0999 V2000
   -4.8929    6.1479    3.7554 C   0  0  0  0  0  0  0  0  0  0  0  0
   -5.6250    7.0596    3.0181 C   0  0  0  0  0  0  0  0  0  0  0  0
   -6.8758    6.5474    2.8299 N   0  0  0  0  0  0  0  0  0  0  0  0
   -6.9836    5.3082    3.4133 C   0  0  0  0  0  0  0  0  0  0  0  0
   -8.0891    4.4524    3.4499 C   0  0  0  0  0  0  0  0  0  0  0  0
   -7.9422    3.2435    4.1202 C   0  0  0  0  0  0  0  0  0  0  0  0
   -6.7312    2.9085    4.7211 C   0  0  0  0  0  0  0  0  0  0  0  0
   -5.6051    3.7540    4.6912 C   0  0  0  0  0  0  0  0  0  0  0  0
   -4.4711    3.4804    5.1998 O   0  0  0  0  0  0  0  0  0  0  0  0
   -5.7533    5.0075    4.0129 C   0  0  0  0  0  0  0  0  0  0  0  0
   -7.6302    7.0083    2.3422 H   0  0  0  0  0  0  0  0  0  0  0  0
   -3.4780    6.3521    4.2056 C   0  0  0  0  0  0  0  0  0  0  0  0
   -2.1379    4.3880    3.5180 N   0  0  0  0  0  0  0  0  0  0  0  0
   -2.4446    5.7909    3.2278 C   0  0  0  0  0  0  0  0  0  0  0  0
   -3.0547    3.8780    3.6747 H   0  0  0  0  0  0  0  0  0  0  0  0
   -1.7824    4.2138    4.4654 H   0  0  0  0  0  0  0  0  0  0  0  0
   -1.6468    3.8333    2.8219 H   0  0  0  0  0  0  0  0  0  0  0  0
 13 14  1  0
 14 12  1  0
 12  1  1  0
  1  2  2  0
  2  3  1  0
  3  4  1  0
  4  5  2  0
  5  6  1  0
  6  7  2  0
  7  8  1  0
  8  9  1  0
  8 10  2  0
 10  1  1  0
 10  4  1  0
 13 15  1  0
 13 16  1  0
 13 17  1  0
  3 11  1  0
M  CHG 1   9  -1
M  CHG 1  13   1
M  END
> <input_smiles>
NCCc1c[nH]c2cccc(O)c12

> <prot_variant_index>
1

> <minimizedAffinity>
0.00000

> <CNNscore>
0.6626288891

> <CNNaffinity>
3.1852509975

> <CNN_VS>
2.1106393337

> <CNNaffinity_variance>
0.8942605853

$$$$
Serotonin__p2


 17 18  0  0  0  0  0  0  0  0999 V2000
    3.5908   -1.8153   -0.2443 C   0  0  0  0  0  0  0  0  0  0  0  0
    3.9706   -1.9128    1.0812 C   0  0  0  0  0  0  0  0  0  0  0  0
    3.0888   -2.7371    1.7233 N   0  0  0  0  0  0  0  0  0  0  0  0
    2.1312   -3.1872    0.8459 C   0  0  0  0  0  0  0  0  0  0  0  0
    1.0273   -4.0205    1.0740 C   0  0  0  0  0  0  0  0  0  0  0  0
    0.1957   -4.3165   -0.0103 C   0  0  0  0  0  0  0  0  0  0  0  0
    0.4690   -3.8133   -1.2785 C   0  0  0  0  0  0  0  0  0  0  0  0
    1.5837   -2.9995   -1.4876 C   0  0  0  0  0  0  0  0  0  0  0  0
    1.8118   -2.5954   -2.7860 O   0  0  0  0  0  0  0  0  0  0  0  0
    2.4316   -2.6506   -0.4100 C   0  0  0  0  0  0  0  0  0  0  0  0
    3.1165   -2.9686    2.7065 H   0  0  0  0  0  0  0  0  0  0  0  0
    2.7772   -2.4351   -2.8784 H   0  0  0  0  0  0  0  0  0  0  0  0
    4.2503   -0.9558   -1.2800 C   0  0  0  0  0  0  0  0  0  0  0  0
    4.7355   -2.2159   -3.3827 N   0  0  0  0  0  0  0  0  0  0  0  0
    5.2936   -1.6915   -2.1293 C   0  0  0  0  0  0  0  0  0  0  0  0
    5.5058   -2.5600   -3.9604 H   0  0  0  0  0  0  0  0  0  0  0  0
    4.1955   -3.0591   -3.1549 H   0  0  0  0  0  0  0  0  0  0  0  0
 14 15  1  0
 15 13  1  0
 13  1  1  0
  1  2  2  0
  2  3  1  0
  3  4  1  0
  4  5  2  0
  5  6  1  0
  6  7  2  0
  7  8  1  0
  8  9  1  0
  8 10  2  0
 10  1  1  0
 10  4  1  0
 14 16  1  0
 14 17  1  0
  3 11  1  0
  9 12  1  0
M  END
> <input_smiles>
NCCc1c[nH]c2cccc(O)c12

> <prot_variant_index>
2

> <minimizedAffinity>
0.00000

> <CNNscore>
0.7061513066

> <CNNaffinity>
3.5016326904

> <CNN_VS>
2.4726824760

> <CNNaffinity_variance>
1.6742033958

$$$$
Serotonin__p2


 17 18  0  0  0  0  0  0  0  0999 V2000
   -7.5774    0.3743   -0.5489 C   0  0  0  0  0  0  0  0  0  0  0  0
   -7.9626   -0.9243   -0.2731 C   0  0  0  0  0  0  0  0  0  0  0  0
   -6.8449   -1.6505    0.0315 N   0  0  0  0  0  0  0  0  0  0  0  0
   -5.7259   -0.8554   -0.0381 C   0  0  0  0  0  0  0  0  0  0  0  0
   -4.3785   -1.1844    0.1653 C   0  0  0  0  0  0  0  0  0  0  0  0
   -3.4279   -0.1696    0.0198 C   0  0  0  0  0  0  0  0  0  0  0  0
   -3.8124    1.1292   -0.2986 C   0  0  0  0  0  0  0  0  0  0  0  0
   -5.1614    1.4395   -0.4796 C   0  0  0  0  0  0  0  0  0  0  0  0
   -5.4567    2.7623   -0.7328 O   0  0  0  0  0  0  0  0  0  0  0  0
   -6.1511    0.4340   -0.3727 C   0  0  0  0  0  0  0  0  0  0  0  0
   -6.8323   -2.6362    0.2539 H   0  0  0  0  0  0  0  0  0  0  0  0
   -6.3711    2.9258   -0.4112 H   0  0  0  0  0  0  0  0  0  0  0  0
   -8.4878    1.4788   -0.9932 C   0  0  0  0  0  0  0  0  0  0  0  0
   -8.1361    3.5137    0.4138 N   0  0  0  0  0  0  0  0  0  0  0  0
   -9.0052    2.3593    0.1504 C   0  0  0  0  0  0  0  0  0  0  0  0
   -8.6099    4.1301    1.0779 H   0  0  0  0  0  0  0  0  0  0  0  0
   -7.3141    3.1745    0.9275 H   0  0  0  0  0  0  0  0  0  0  0  0
 14 15  1  0
 15 13  1  0
 13  1  1  0
  1  2  2  0
  2  3  1  0
  3  4  1  0
  4  5  2  0
  5  6  1  0
  6  7  2  0
  7  8  1  0
  8  9  1  0
  8 10  2  0
 10  1  1  0
 10  4  1  0
 14 16  1  0
 14 17  1  0
  3 11  1  0
  9 12  1  0
M  END
> <input_smiles>
NCCc1c[nH]c2cccc(O)c12

> <prot_variant_index>
2

> <minimizedAffinity>
0.00000

> <CNNscore>
0.6848908067

> <CNNaffinity>
3.5737705231

> <CNN_VS>
2.4476425648

> <CNNaffinity_variance>
1.9194284678

$$$$
Serotonin__p2


 17 18  0  0  0  0  0  0  0  0999 V2000
    4.0223    1.7621   -1.3767 C   0  0  0  0  0  0  0  0  0  0  0  0
    4.4996    3.0478   -1.2044 C   0  0  0  0  0  0  0  0  0  0  0  0
    5.2191    3.0889   -0.0425 N   0  0  0  0  0  0  0  0  0  0  0  0
    5.2265    1.8525    0.5579 C   0  0  0  0  0  0  0  0  0  0  0  0
    5.8102    1.4461    1.7659 C   0  0  0  0  0  0  0  0  0  0  0  0
    5.6547    0.1113    2.1515 C   0  0  0  0  0  0  0  0  0  0  0  0
    4.9577   -0.7873    1.3497 C   0  0  0  0  0  0  0  0  0  0  0  0
    4.3991   -0.3661    0.1416 C   0  0  0  0  0  0  0  0  0  0  0  0
    3.7787   -1.3359   -0.6171 O   0  0  0  0  0  0  0  0  0  0  0  0
    4.5069    0.9837   -0.2684 C   0  0  0  0  0  0  0  0  0  0  0  0
    5.6649    3.9118    0.3388 H   0  0  0  0  0  0  0  0  0  0  0  0
    3.8302   -1.0513   -1.5566 H   0  0  0  0  0  0  0  0  0  0  0  0
    3.1298    1.3046   -2.4904 C   0  0  0  0  0  0  0  0  0  0  0  0
    4.1559   -0.7158   -3.5437 N   0  0  0  0  0  0  0  0  0  0  0  0
    3.8811    0.7194   -3.6920 C   0  0  0  0  0  0  0  0  0  0  0  0
    4.5217   -1.0682   -4.4311 H   0  0  0  0  0  0  0  0  0  0  0  0
    4.9412   -0.8170   -2.8898 H   0  0  0  0  0  0  0  0  0  0  0  0
 14 15  1  0
 15 13  1  0
 13  1  1  0
  1  2  2  0
  2  3  1  0
  3  4  1  0
  4  5  2  0
  5  6  1  0
  6  7  2  0
  7  8  1  0
  8  9  1  0
  8 10  2  0
 10  1  1  0
 10  4  1  0
 14 16  1  0
 14 17  1  0
  3 11  1  0
  9 12  1  0
M  END
> <input_smiles>
NCCc1c[nH]c2cccc(O)c12

> <prot_variant_index>
2

> <minimizedAffinity>
0.00000

> <CNNscore>
0.6658602953

> <CNNaffinity>
3.1881864071

> <CNN_VS>
2.1228866577

> <CNNaffinity_variance>
0.6098442674

$$$$
Serotonin__p2


 17 18  0  0  0  0  0  0  0  0999 V2000
    5.0882   -0.8199    1.4316 C   0  0  0  0  0  0  0  0  0  0  0  0
    3.7880   -0.6314    1.0019 C   0  0  0  0  0  0  0  0  0  0  0  0
    2.9421   -1.1136    1.9618 N   0  0  0  0  0  0  0  0  0  0  0  0
    3.6597   -1.6185    3.0199 C   0  0  0  0  0  0  0  0  0  0  0  0
    3.2091   -2.2319    4.1971 C   0  0  0  0  0  0  0  0  0  0  0  0
    4.1682   -2.6682    5.1161 C   0  0  0  0  0  0  0  0  0  0  0  0
    5.5258   -2.4808    4.8750 C   0  0  0  0  0  0  0  0  0  0  0  0
    5.9526   -1.8516    3.7042 C   0  0  0  0  0  0  0  0  0  0  0  0
    7.3110   -1.6536    3.5758 O   0  0  0  0  0  0  0  0  0  0  0  0
    5.0148   -1.4245    2.7347 C   0  0  0  0  0  0  0  0  0  0  0  0
    1.9335   -1.1225    1.8995 H   0  0  0  0  0  0  0  0  0  0  0  0
    7.4401   -0.8697    2.9970 H   0  0  0  0  0  0  0  0  0  0  0  0
    6.3225   -0.4923    0.6472 C   0  0  0  0  0  0  0  0  0  0  0  0
    7.5718   -0.9022   -1.4778 N   0  0  0  0  0  0  0  0  0  0  0  0
    6.2555   -0.9119   -0.8259 C   0  0  0  0  0  0  0  0  0  0  0  0
    7.4776   -1.3282   -2.4025 H   0  0  0  0  0  0  0  0  0  0  0  0
    7.8149    0.0759   -1.6748 H   0  0  0  0  0  0  0  0  0  0  0  0
 14 15  1  0
 15 13  1  0
 13  1  1  0
  1  2  2  0
  2  3  1  0
  3  4  1  0
  4  5  2  0
  5  6  1  0
  6  7  2  0
  7  8  1  0
  8  9  1  0
  8 10  2  0
 10  1  1  0
 10  4  1  0
 14 16  1  0
 14 17  1  0
  3 11  1  0
  9 12  1  0
M  END
> <input_smiles>
NCCc1c[nH]c2cccc(O)c12

> <prot_variant_index>
2

> <minimizedAffinity>
0.00000

> <CNNscore>
0.6589829326

> <CNNaffinity>
3.3271429539

> <CNN_VS>
2.1925303936

> <CNNaffinity_variance>
1.0077515841

$$$$
Serotonin__p2


 17 18  0  0  0  0  0  0  0  0999 V2000
    4.0040    0.0303    1.6344 C   0  0  0  0  0  0  0  0  0  0  0  0
    4.0389    0.3717    0.2954 C   0  0  0  0  0  0  0  0  0  0  0  0
    2.8389    0.0352   -0.2671 N   0  0  0  0  0  0  0  0  0  0  0  0
    2.0099   -0.5235    0.6763 C   0  0  0  0  0  0  0  0  0  0  0  0
    0.7117   -1.0342    0.5390 C   0  0  0  0  0  0  0  0  0  0  0  0
    0.0919   -1.5607    1.6762 C   0  0  0  0  0  0  0  0  0  0  0  0
    0.7392   -1.5592    2.9080 C   0  0  0  0  0  0  0  0  0  0  0  0
    2.0254   -1.0296    3.0266 C   0  0  0  0  0  0  0  0  0  0  0  0
    2.5665   -1.0139    4.2946 O   0  0  0  0  0  0  0  0  0  0  0  0
    2.6990   -0.5166    1.8930 C   0  0  0  0  0  0  0  0  0  0  0  0
    2.5971    0.1551   -1.2409 H   0  0  0  0  0  0  0  0  0  0  0  0
    3.2114   -0.2728    4.3296 H   0  0  0  0  0  0  0  0  0  0  0  0
    5.1418    0.1689    2.6001 C   0  0  0  0  0  0  0  0  0  0  0  0
    5.5190    2.6310    2.8005 N   0  0  0  0  0  0  0  0  0  0  0  0
    5.0590    1.4168    3.4871 C   0  0  0  0  0  0  0  0  0  0  0  0
    5.3010    3.4377    3.3897 H   0  0  0  0  0  0  0  0  0  0  0  0
    6.5454    2.6062    2.7772 H   0  0  0  0  0  0  0  0  0  0  0  0
 14 15  1  0
 15 13  1  0
 13  1  1  0
  1  2  2  0
  2  3  1  0
  3  4  1  0
  4  5  2  0
  5  6  1  0
  6  7  2  0
  7  8  1  0
  8  9  1  0
  8 10  2  0
 10  1  1  0
 10  4  1  0
 14 16  1  0
 14 17  1  0
  3 11  1  0
  9 12  1  0
M  END
> <input_smiles>
NCCc1c[nH]c2cccc(O)c12

> <prot_variant_index>
2

> <minimizedAffinity>
0.00000

> <CNNscore>
0.6486092806

> <CNNaffinity>
3.3231937885

> <CNN_VS>
2.1554543972

> <CNNaffinity_variance>
1.2986847162

$$$$
Serotonin__p2


 17 18  0  0  0  0  0  0  0  0999 V2000
    0.8707   -0.8238    1.3859 C   0  0  0  0  0  0  0  0  0  0  0  0
    1.3096   -1.0189    2.6821 C   0  0  0  0  0  0  0  0  0  0  0  0
    2.6698   -1.1568    2.6609 N   0  0  0  0  0  0  0  0  0  0  0  0
    3.1394   -1.0567    1.3730 C   0  0  0  0  0  0  0  0  0  0  0  0
    4.4493   -1.1643    0.8857 C   0  0  0  0  0  0  0  0  0  0  0  0
    4.6484   -1.0289   -0.4915 C   0  0  0  0  0  0  0  0  0  0  0  0
    3.5799   -0.7766   -1.3464 C   0  0  0  0  0  0  0  0  0  0  0  0
    2.2853   -0.6554   -0.8383 C   0  0  0  0  0  0  0  0  0  0  0  0
    1.2970   -0.3454   -1.7483 O   0  0  0  0  0  0  0  0  0  0  0  0
    2.0379   -0.8177    0.5453 C   0  0  0  0  0  0  0  0  0  0  0  0
    3.2511   -1.3310    3.4689 H   0  0  0  0  0  0  0  0  0  0  0  0
    0.5856    0.1257   -1.2601 H   0  0  0  0  0  0  0  0  0  0  0  0
   -0.5603   -0.6953    0.9592 C   0  0  0  0  0  0  0  0  0  0  0  0
   -1.1680   -1.9692   -1.1029 N   0  0  0  0  0  0  0  0  0  0  0  0
   -1.1523   -1.9792    0.3658 C   0  0  0  0  0  0  0  0  0  0  0  0
   -1.4337   -2.9009   -1.4296 H   0  0  0  0  0  0  0  0  0  0  0  0
   -1.9439   -1.3667   -1.4023 H   0  0  0  0  0  0  0  0  0  0  0  0
 14 15  1  0
 15 13  1  0
 13  1  1  0
  1  2  2  0
  2  3  1  0
  3  4  1  0
  4  5  2  0
  5  6  1  0
  6  7  2  0
  7  8  1  0
  8  9  1  0
  8 10  2  0
 10  1  1  0
 10  4  1  0
 14 16  1  0
 14 17  1  0
  3 11  1  0
  9 12  1  0
M  END
> <input_smiles>
NCCc1c[nH]c2cccc(O)c12

> <prot_variant_index>
2

> <minimizedAffinity>
0.00000

> <CNNscore>
0.6467168331

> <CNNaffinity>
3.1753151417

> <CNN_VS>
2.0535297394

> <CNNaffinity_variance>
0.4823592603

$$$$
Serotonin__p2


 17 18  0  0  0  0  0  0  0  0999 V2000
    4.9705   -8.9806    1.5695 C   0  0  0  0  0  0  0  0  0  0  0  0
    4.3326   -9.3425    2.7412 C   0  0  0  0  0  0  0  0  0  0  0  0
    2.9829   -9.2432    2.5461 N   0  0  0  0  0  0  0  0  0  0  0  0
    2.7159   -8.8215    1.2654 C   0  0  0  0  0  0  0  0  0  0  0  0
    1.4859   -8.5585    0.6464 C   0  0  0  0  0  0  0  0  0  0  0  0
    1.5015   -8.1256   -0.6828 C   0  0  0  0  0  0  0  0  0  0  0  0
    2.7012   -7.9797   -1.3726 C   0  0  0  0  0  0  0  0  0  0  0  0
    3.9142   -8.2639   -0.7429 C   0  0  0  0  0  0  0  0  0  0  0  0
    5.0482   -8.1502   -1.5189 O   0  0  0  0  0  0  0  0  0  0  0  0
    3.9428   -8.6736    0.6111 C   0  0  0  0  0  0  0  0  0  0  0  0
    2.2772   -9.4288    3.2452 H   0  0  0  0  0  0  0  0  0  0  0  0
    5.7220   -8.7609   -1.1455 H   0  0  0  0  0  0  0  0  0  0  0  0
    6.4538   -8.8868    1.3767 C   0  0  0  0  0  0  0  0  0  0  0  0
    7.2388   -6.8699    0.1275 N   0  0  0  0  0  0  0  0  0  0  0  0
    7.0040   -7.4577    1.4530 C   0  0  0  0  0  0  0  0  0  0  0  0
    7.4613   -5.8793    0.2481 H   0  0  0  0  0  0  0  0  0  0  0  0
    8.1038   -7.2785   -0.2459 H   0  0  0  0  0  0  0  0  0  0  0  0
 14 15  1  0
 15 13  1  0
 13  1  1  0
  1  2  2  0
  2  3  1  0
  3  4  1  0
  4  5  2  0
  5  6  1  0
  6  7  2  0
  7  8  1  0
  8  9  1  0
  8 10  2  0
 10  1  1  0
 10  4  1  0
 14 16  1  0
 14 17  1  0
  3 11  1  0
  9 12  1  0
M  END
> <input_smiles>
NCCc1c[nH]c2cccc(O)c12

> <prot_variant_index>
2

> <minimizedAffinity>
0.00000

> <CNNscore>
0.6442775726

> <CNNaffinity>
3.1205837727

> <CNN_VS>
2.0105221272

> <CNNaffinity_variance>
0.7468168139

$$$$
Serotonin__p2


 17 18  0  0  0  0  0  0  0  0999 V2000
    3.2622    0.4971   -1.6111 C   0  0  0  0  0  0  0  0  0  0  0  0
    4.2773    0.6373   -2.5388 C   0  0  0  0  0  0  0  0  0  0  0  0
    5.0516   -0.4891   -2.5048 N   0  0  0  0  0  0  0  0  0  0  0  0
    4.5669   -1.3730   -1.5703 C   0  0  0  0  0  0  0  0  0  0  0  0
    5.0584   -2.6276   -1.1836 C   0  0  0  0  0  0  0  0  0  0  0  0
    4.3669   -3.3224   -0.1868 C   0  0  0  0  0  0  0  0  0  0  0  0
    3.2166   -2.7906    0.3879 C   0  0  0  0  0  0  0  0  0  0  0  0
    2.7340   -1.5473   -0.0243 C   0  0  0  0  0  0  0  0  0  0  0  0
    1.5561   -1.1251    0.5548 O   0  0  0  0  0  0  0  0  0  0  0  0
    3.4230   -0.7985   -1.0074 C   0  0  0  0  0  0  0  0  0  0  0  0
    5.8769   -0.6469   -3.0662 H   0  0  0  0  0  0  0  0  0  0  0  0
    1.1145   -0.5221   -0.0837 H   0  0  0  0  0  0  0  0  0  0  0  0
    2.2318    1.5344   -1.2817 C   0  0  0  0  0  0  0  0  0  0  0  0
    0.8714    1.7819   -3.3632 N   0  0  0  0  0  0  0  0  0  0  0  0
    0.8804    1.3128   -1.9714 C   0  0  0  0  0  0  0  0  0  0  0  0
    0.0011    1.4735   -3.8025 H   0  0  0  0  0  0  0  0  0  0  0  0
    0.7960    2.8059   -3.3466 H   0  0  0  0  0  0  0  0  0  0  0  0
 14 15  1  0
 15 13  1  0
 13  1  1  0
  1  2  2  0
  2  3  1  0
  3  4  1  0
  4  5  2  0
  5  6  1  0
  6  7  2  0
  7  8  1  0
  8  9  1  0
  8 10  2  0
 10  1  1  0
 10  4  1  0
 14 16  1  0
 14 17  1  0
  3 11  1  0
  9 12  1  0
M  END
> <input_smiles>
NCCc1c[nH]c2cccc(O)c12

> <prot_variant_index>
2

> <minimizedAffinity>
0.00000

> <CNNscore>
0.6388398409

> <CNNaffinity>
3.2091009617

> <CNN_VS>
2.0501015186

> <CNNaffinity_variance>
0.8602991104

$$$$
Serotonin__p2


 17 18  0  0  0  0  0  0  0  0999 V2000
    3.5908   -1.8153   -0.2443 C   0  0  0  0  0  0  0  0  0  0  0  0
    4.8973   -1.6252    0.1649 C   0  0  0  0  0  0  0  0  0  0  0  0
    5.0016   -2.0160    1.4710 N   0  0  0  0  0  0  0  0  0  0  0  0
    3.7865   -2.4615    1.9340 C   0  0  0  0  0  0  0  0  0  0  0  0
    3.4276   -2.9250    3.2074 C   0  0  0  0  0  0  0  0  0  0  0  0
    2.1002   -3.3127    3.4126 C   0  0  0  0  0  0  0  0  0  0  0  0
    1.1715   -3.2568    2.3779 C   0  0  0  0  0  0  0  0  0  0  0  0
    1.5539   -2.8087    1.1123 C   0  0  0  0  0  0  0  0  0  0  0  0
    0.5850   -2.8435    0.1320 O   0  0  0  0  0  0  0  0  0  0  0  0
    2.8798   -2.3772    0.8727 C   0  0  0  0  0  0  0  0  0  0  0  0
    5.8421   -1.9657    2.0297 H   0  0  0  0  0  0  0  0  0  0  0  0
    1.0445   -2.9391   -0.7318 H   0  0  0  0  0  0  0  0  0  0  0  0
    3.0353   -1.4503   -1.5877 C   0  0  0  0  0  0  0  0  0  0  0  0
    1.7805   -3.3700   -2.5798 N   0  0  0  0  0  0  0  0  0  0  0  0
    3.0339   -2.6044   -2.5970 C   0  0  0  0  0  0  0  0  0  0  0  0
    1.7891   -4.0218   -3.3675 H   0  0  0  0  0  0  0  0  0  0  0  0
    1.7969   -3.9764   -1.7511 H   0  0  0  0  0  0  0  0  0  0  0  0
 14 15  1  0
 15 13  1  0
 13  1  1  0
  1  2  2  0
  2  3  1  0
  3  4  1  0
  4  5  2  0
  5  6  1  0
  6  7  2  0
  7  8  1  0
  8  9  1  0
  8 10  2  0
 10  1  1  0
 10  4  1  0
 14 16  1  0
 14 17  1  0
  3 11  1  0
  9 12  1  0
M  END
> <input_smiles>
NCCc1c[nH]c2cccc(O)c12

> <prot_variant_index>
2

> <minimizedAffinity>
0.00000

> <CNNscore>
0.6312770844

> <CNNaffinity>
3.1397333145

> <CNN_VS>
1.9820417166

> <CNNaffinity_variance>
0.5219147801

$$$$
Serotonin__p2


 17 18  0  0  0  0  0  0  0  0999 V2000
   -2.5795    0.9885   -1.2184 C   0  0  0  0  0  0  0  0  0  0  0  0
   -1.9885   -0.1807   -0.7775 C   0  0  0  0  0  0  0  0  0  0  0  0
   -0.6746    0.0777   -0.5010 N   0  0  0  0  0  0  0  0  0  0  0  0
   -0.3851    1.3978   -0.7514 C   0  0  0  0  0  0  0  0  0  0  0  0
    0.8305    2.0863   -0.6363 C   0  0  0  0  0  0  0  0  0  0  0  0
    0.8477    3.4440   -0.9695 C   0  0  0  0  0  0  0  0  0  0  0  0
   -0.3115    4.0927   -1.3838 C   0  0  0  0  0  0  0  0  0  0  0  0
   -1.5158    3.3925   -1.4746 C   0  0  0  0  0  0  0  0  0  0  0  0
   -2.6255    4.1272   -1.8348 O   0  0  0  0  0  0  0  0  0  0  0  0
   -1.5680    2.0102   -1.1772 C   0  0  0  0  0  0  0  0  0  0  0  0
   -0.0009   -0.6040   -0.1806 H   0  0  0  0  0  0  0  0  0  0  0  0
   -3.4117    3.6788   -1.4514 H   0  0  0  0  0  0  0  0  0  0  0  0
   -3.9953    1.1263   -1.6907 C   0  0  0  0  0  0  0  0  0  0  0  0
   -5.0553    3.0149   -0.4441 N   0  0  0  0  0  0  0  0  0  0  0  0
   -4.9793    1.5560   -0.5962 C   0  0  0  0  0  0  0  0  0  0  0  0
   -5.8271    3.2340    0.1897 H   0  0  0  0  0  0  0  0  0  0  0  0
   -4.2171    3.3194    0.0652 H   0  0  0  0  0  0  0  0  0  0  0  0
 14 15  1  0
 15 13  1  0
 13  1  1  0
  1  2  2  0
  2  3  1  0
  3  4  1  0
  4  5  2  0
  5  6  1  0
  6  7  2  0
  7  8  1  0
  8  9  1  0
  8 10  2  0
 10  1  1  0
 10  4  1  0
 14 16  1  0
 14 17  1  0
  3 11  1  0
  9 12  1  0
M  END
> <input_smiles>
NCCc1c[nH]c2cccc(O)c12

> <prot_variant_index>
2

> <minimizedAffinity>
0.00000

> <CNNscore>
0.6260433197

> <CNNaffinity>
3.2400064468

> <CNN_VS>
2.0283844471

> <CNNaffinity_variance>
0.5154686570

$$$$
Serotonin__p2


 17 18  0  0  0  0  0  0  0  0999 V2000
   -4.7585    0.2853   -0.4496 C   0  0  0  0  0  0  0  0  0  0  0  0
   -4.1674   -0.8839   -0.0087 C   0  0  0  0  0  0  0  0  0  0  0  0
   -2.8535   -0.6255    0.2678 N   0  0  0  0  0  0  0  0  0  0  0  0
   -2.5641    0.6947    0.0174 C   0  0  0  0  0  0  0  0  0  0  0  0
   -1.3484    1.3831    0.1324 C   0  0  0  0  0  0  0  0  0  0  0  0
   -1.3312    2.7408   -0.2007 C   0  0  0  0  0  0  0  0  0  0  0  0
   -2.4904    3.3895   -0.6151 C   0  0  0  0  0  0  0  0  0  0  0  0
   -3.6947    2.6893   -0.7059 C   0  0  0  0  0  0  0  0  0  0  0  0
   -4.8044    3.4240   -1.0660 O   0  0  0  0  0  0  0  0  0  0  0  0
   -3.7469    1.3071   -0.4084 C   0  0  0  0  0  0  0  0  0  0  0  0
   -2.1799   -1.3072    0.5881 H   0  0  0  0  0  0  0  0  0  0  0  0
   -5.5907    2.9756   -0.6826 H   0  0  0  0  0  0  0  0  0  0  0  0
   -6.1742    0.4231   -0.9219 C   0  0  0  0  0  0  0  0  0  0  0  0
   -7.2379    2.3124    0.3206 N   0  0  0  0  0  0  0  0  0  0  0  0
   -7.1582    0.8532    0.1725 C   0  0  0  0  0  0  0  0  0  0  0  0
   -8.0096    2.5312    0.9547 H   0  0  0  0  0  0  0  0  0  0  0  0
   -6.3999    2.6205    0.8281 H   0  0  0  0  0  0  0  0  0  0  0  0
 14 15  1  0
 15 13  1  0
 13  1  1  0
  1  2  2  0
  2  3  1  0
  3  4  1  0
  4  5  2  0
  5  6  1  0
  6  7  2  0
  7  8  1  0
  8  9  1  0
  8 10  2  0
 10  1  1  0
 10  4  1  0
 14 16  1  0
 14 17  1  0
  3 11  1  0
  9 12  1  0
M  END
> <input_smiles>
NCCc1c[nH]c2cccc(O)c12

> <prot_variant_index>
2

> <minimizedAffinity>
0.00000

> <CNNscore>
0.6257554889

> <CNNaffinity>
3.2401688099

> <CNN_VS>
2.0275533199

> <CNNaffinity_variance>
0.5151411891

$$$$
Serotonin__p2


 17 18  0  0  0  0  0  0  0  0999 V2000
   -3.4849    3.1304   -2.0744 C   0  0  0  0  0  0  0  0  0  0  0  0
   -3.3084    2.7484   -0.7577 C   0  0  0  0  0  0  0  0  0  0  0  0
   -2.8891    3.8374   -0.0450 N   0  0  0  0  0  0  0  0  0  0  0  0
   -2.7847    4.9340   -0.8671 C   0  0  0  0  0  0  0  0  0  0  0  0
   -2.3677    6.2394   -0.5715 C   0  0  0  0  0  0  0  0  0  0  0  0
   -2.3467    7.1714   -1.6134 C   0  0  0  0  0  0  0  0  0  0  0  0
   -2.7458    6.8158   -2.8981 C   0  0  0  0  0  0  0  0  0  0  0  0
   -3.1745    5.5148   -3.1673 C   0  0  0  0  0  0  0  0  0  0  0  0
   -3.6087    5.2668   -4.4521 O   0  0  0  0  0  0  0  0  0  0  0  0
   -3.1798    4.5341   -2.1474 C   0  0  0  0  0  0  0  0  0  0  0  0
   -2.6638    3.8384    0.9401 H   0  0  0  0  0  0  0  0  0  0  0  0
   -4.2555    4.5280   -4.4061 H   0  0  0  0  0  0  0  0  0  0  0  0
   -3.8734    2.2224   -3.2017 C   0  0  0  0  0  0  0  0  0  0  0  0
   -5.7802    3.1845   -4.4989 N   0  0  0  0  0  0  0  0  0  0  0  0
   -5.3789    2.1948   -3.4904 C   0  0  0  0  0  0  0  0  0  0  0  0
   -6.7571    3.0139   -4.7483 H   0  0  0  0  0  0  0  0  0  0  0  0
   -5.7936    4.1052   -4.0442 H   0  0  0  0  0  0  0  0  0  0  0  0
 14 15  1  0
 15 13  1  0
 13  1  1  0
  1  2  2  0
  2  3  1  0
  3  4  1  0
  4  5  2  0
  5  6  1  0
  6  7  2  0
  7  8  1  0
  8  9  1  0
  8 10  2  0
 10  1  1  0
 10  4  1  0
 14 16  1  0
 14 17  1  0
  3 11  1  0
  9 12  1  0
M  END
> <input_smiles>
NCCc1c[nH]c2cccc(O)c12

> <prot_variant_index>
2

> <minimizedAffinity>
0.00000

> <CNNscore>
0.6235219240

> <CNNaffinity>
3.2050743103

> <CNN_VS>
1.9984340668

> <CNNaffinity_variance>
0.8026854396

$$$$
Serotonin__p2


 17 18  0  0  0  0  0  0  0  0999 V2000
   -3.3754    1.2532   -3.1572 C   0  0  0  0  0  0  0  0  0  0  0  0
   -3.1990    0.8710   -1.8406 C   0  0  0  0  0  0  0  0  0  0  0  0
   -2.7794    1.9597   -1.1278 N   0  0  0  0  0  0  0  0  0  0  0  0
   -2.6747    3.0564   -1.9497 C   0  0  0  0  0  0  0  0  0  0  0  0
   -2.2573    4.3616   -1.6539 C   0  0  0  0  0  0  0  0  0  0  0  0
   -2.2361    5.2938   -2.6956 C   0  0  0  0  0  0  0  0  0  0  0  0
   -2.6353    4.9385   -3.9804 C   0  0  0  0  0  0  0  0  0  0  0  0
   -3.0644    3.6377   -4.2498 C   0  0  0  0  0  0  0  0  0  0  0  0
   -3.4987    3.3900   -5.5347 O   0  0  0  0  0  0  0  0  0  0  0  0
   -3.0700    2.6568   -3.2301 C   0  0  0  0  0  0  0  0  0  0  0  0
   -2.5541    1.9605   -0.1427 H   0  0  0  0  0  0  0  0  0  0  0  0
   -4.1457    2.6514   -5.4887 H   0  0  0  0  0  0  0  0  0  0  0  0
   -3.7642    0.3454   -4.2847 C   0  0  0  0  0  0  0  0  0  0  0  0
   -5.6829    1.3185   -5.5559 N   0  0  0  0  0  0  0  0  0  0  0  0
   -5.2706    0.3124   -4.5684 C   0  0  0  0  0  0  0  0  0  0  0  0
   -6.6593    1.1457   -5.8050 H   0  0  0  0  0  0  0  0  0  0  0  0
   -5.7012    2.2301   -5.0833 H   0  0  0  0  0  0  0  0  0  0  0  0
 14 15  1  0
 15 13  1  0
 13  1  1  0
  1  2  2  0
  2  3  1  0
  3  4  1  0
  4  5  2  0
  5  6  1  0
  6  7  2  0
  7  8  1  0
  8  9  1  0
  8 10  2  0
 10  1  1  0
 10  4  1  0
 14 16  1  0
 14 17  1  0
  3 11  1  0
  9 12  1  0
M  END
> <input_smiles>
NCCc1c[nH]c2cccc(O)c12

> <prot_variant_index>
2

> <minimizedAffinity>
0.00000

> <CNNscore>
0.6231053472

> <CNNaffinity>
3.2029514313

> <CNN_VS>
1.9957761765

> <CNNaffinity_variance>
0.8041928411

$$$$
Serotonin__p2


 17 18  0  0  0  0  0  0  0  0999 V2000
   -3.0585    2.7212   -2.0016 C   0  0  0  0  0  0  0  0  0  0  0  0
   -2.4675    1.5520   -1.5607 C   0  0  0  0  0  0  0  0  0  0  0  0
   -1.1536    1.8103   -1.2842 N   0  0  0  0  0  0  0  0  0  0  0  0
   -0.8641    3.1305   -1.5346 C   0  0  0  0  0  0  0  0  0  0  0  0
    0.3515    3.8190   -1.4195 C   0  0  0  0  0  0  0  0  0  0  0  0
    0.3687    5.1767   -1.7527 C   0  0  0  0  0  0  0  0  0  0  0  0
   -0.7905    5.8254   -2.1671 C   0  0  0  0  0  0  0  0  0  0  0  0
   -1.9948    5.1252   -2.2578 C   0  0  0  0  0  0  0  0  0  0  0  0
   -3.1045    5.8599   -2.6180 O   0  0  0  0  0  0  0  0  0  0  0  0
   -2.0469    3.7429   -1.9604 C   0  0  0  0  0  0  0  0  0  0  0  0
   -0.4799    1.1286   -0.9638 H   0  0  0  0  0  0  0  0  0  0  0  0
   -3.8907    5.4114   -2.2346 H   0  0  0  0  0  0  0  0  0  0  0  0
   -4.4743    2.8590   -2.4738 C   0  0  0  0  0  0  0  0  0  0  0  0
   -4.7588    4.2238   -4.5477 N   0  0  0  0  0  0  0  0  0  0  0  0
   -4.6252    2.8676   -3.9996 C   0  0  0  0  0  0  0  0  0  0  0  0
   -4.7071    4.1669   -5.5672 H   0  0  0  0  0  0  0  0  0  0  0  0
   -5.7173    4.5422   -4.3616 H   0  0  0  0  0  0  0  0  0  0  0  0
 14 15  1  0
 15 13  1  0
 13  1  1  0
  1  2  2  0
  2  3  1  0
  3  4  1  0
  4  5  2  0
  5  6  1  0
  6  7  2  0
  7  8  1  0
  8  9  1  0
  8 10  2  0
 10  1  1  0
 10  4  1  0
 14 16  1  0
 14 17  1  0
  3 11  1  0
  9 12  1  0
M  END
> <input_smiles>
NCCc1c[nH]c2cccc(O)c12

> <prot_variant_index>
2

> <minimizedAffinity>
0.00000

> <CNNscore>
0.6135246754

> <CNNaffinity>
3.1201765537

> <CNN_VS>
1.9143053293

> <CNNaffinity_variance>
0.5587353110

$$$$
Serotonin__p2


 17 18  0  0  0  0  0  0  0  0999 V2000
   -9.0252    5.4696    5.6043 C   0  0  0  0  0  0  0  0  0  0  0  0
   -7.8918    5.1051    6.3066 C   0  0  0  0  0  0  0  0  0  0  0  0
   -6.8190    5.1774    5.4620 N   0  0  0  0  0  0  0  0  0  0  0  0
   -7.2223    5.5832    4.2122 C   0  0  0  0  0  0  0  0  0  0  0  0
   -6.4711    5.7639    3.0426 C   0  0  0  0  0  0  0  0  0  0  0  0
   -7.1443    6.1803    1.8902 C   0  0  0  0  0  0  0  0  0  0  0  0
   -8.5139    6.4249    1.9120 C   0  0  0  0  0  0  0  0  0  0  0  0
   -9.2404    6.2559    3.0920 C   0  0  0  0  0  0  0  0  0  0  0  0
  -10.5798    6.5787    3.0378 O   0  0  0  0  0  0  0  0  0  0  0  0
   -8.6017    5.8049    4.2712 C   0  0  0  0  0  0  0  0  0  0  0  0
   -5.8667    4.9449    5.7074 H   0  0  0  0  0  0  0  0  0  0  0  0
  -10.8557    6.8400    3.9444 H   0  0  0  0  0  0  0  0  0  0  0  0
  -10.4246    5.4606    6.1408 C   0  0  0  0  0  0  0  0  0  0  0  0
  -11.5151    7.6630    5.6882 N   0  0  0  0  0  0  0  0  0  0  0  0
  -10.8855    6.8098    6.7047 C   0  0  0  0  0  0  0  0  0  0  0  0
  -11.9262    8.4738    6.1564 H   0  0  0  0  0  0  0  0  0  0  0  0
  -10.7670    8.0600    5.1075 H   0  0  0  0  0  0  0  0  0  0  0  0
 14 15  1  0
 15 13  1  0
 13  1  1  0
  1  2  2  0
  2  3  1  0
  3  4  1  0
  4  5  2  0
  5  6  1  0
  6  7  2  0
  7  8  1  0
  8  9  1  0
  8 10  2  0
 10  1  1  0
 10  4  1  0
 14 16  1  0
 14 17  1  0
  3 11  1  0
  9 12  1  0
M  END
> <input_smiles>
NCCc1c[nH]c2cccc(O)c12

> <prot_variant_index>
2

> <minimizedAffinity>
0.00000

> <CNNscore>
0.6059635878

> <CNNaffinity>
3.0283133984

> <CNN_VS>
1.8350476027

> <CNNaffinity_variance>
0.6114045382

$$$$
Serotonin__p2


 17 18  0  0  0  0  0  0  0  0999 V2000
    3.4838   -0.2270    2.8188 C   0  0  0  0  0  0  0  0  0  0  0  0
    3.1541    0.5296    1.7099 C   0  0  0  0  0  0  0  0  0  0  0  0
    1.8095    0.7760    1.7399 N   0  0  0  0  0  0  0  0  0  0  0  0
    1.2428    0.1953    2.8494 C   0  0  0  0  0  0  0  0  0  0  0  0
   -0.0968    0.1683    3.2615 C   0  0  0  0  0  0  0  0  0  0  0  0
   -0.4042   -0.5122    4.4434 C   0  0  0  0  0  0  0  0  0  0  0  0
    0.5933   -1.1262    5.1945 C   0  0  0  0  0  0  0  0  0  0  0  0
    1.9239   -1.0723    4.7754 C   0  0  0  0  0  0  0  0  0  0  0  0
    2.8530   -1.6551    5.6109 O   0  0  0  0  0  0  0  0  0  0  0  0
    2.2717   -0.4210    3.5685 C   0  0  0  0  0  0  0  0  0  0  0  0
    1.2949    1.2903    1.0386 H   0  0  0  0  0  0  0  0  0  0  0  0
    3.7094   -1.1957    5.4635 H   0  0  0  0  0  0  0  0  0  0  0  0
    4.8451   -0.7708    3.1307 C   0  0  0  0  0  0  0  0  0  0  0  0
    5.4383   -0.1120    5.4670 N   0  0  0  0  0  0  0  0  0  0  0  0
    5.6852    0.1337    4.0401 C   0  0  0  0  0  0  0  0  0  0  0  0
    6.1283    0.4126    6.0093 H   0  0  0  0  0  0  0  0  0  0  0  0
    4.5418    0.3269    5.7084 H   0  0  0  0  0  0  0  0  0  0  0  0
 14 15  1  0
 15 13  1  0
 13  1  1  0
  1  2  2  0
  2  3  1  0
  3  4  1  0
  4  5  2  0
  5  6  1  0
  6  7  2  0
  7  8  1  0
  8  9  1  0
  8 10  2  0
 10  1  1  0
 10  4  1  0
 14 16  1  0
 14 17  1  0
  3 11  1  0
  9 12  1  0
M  END
> <input_smiles>
NCCc1c[nH]c2cccc(O)c12

> <prot_variant_index>
2

> <minimizedAffinity>
0.00000

> <CNNscore>
0.6048768163

> <CNNaffinity>
3.0445716381

> <CNN_VS>
1.8415907621

> <CNNaffinity_variance>
0.6684487462

$$$$
Serotonin__p2


 17 18  0  0  0  0  0  0  0  0999 V2000
   -0.8071    0.0772    1.2921 C   0  0  0  0  0  0  0  0  0  0  0  0
   -1.0739   -0.7016    2.4026 C   0  0  0  0  0  0  0  0  0  0  0  0
   -0.0623   -0.5262    3.3057 N   0  0  0  0  0  0  0  0  0  0  0  0
    0.8699    0.3552    2.8124 C   0  0  0  0  0  0  0  0  0  0  0  0
    2.0716    0.8001    3.3809 C   0  0  0  0  0  0  0  0  0  0  0  0
    2.8468    1.7042    2.6485 C   0  0  0  0  0  0  0  0  0  0  0  0
    2.4264    2.1603    1.4029 C   0  0  0  0  0  0  0  0  0  0  0  0
    1.2176    1.7181    0.8626 C   0  0  0  0  0  0  0  0  0  0  0  0
    0.8505    2.2675   -0.3475 O   0  0  0  0  0  0  0  0  0  0  0  0
    0.4200    0.7789    1.5580 C   0  0  0  0  0  0  0  0  0  0  0  0
    0.0088   -0.9920    4.1996 H   0  0  0  0  0  0  0  0  0  0  0  0
   -0.1308    2.2386   -0.3976 H   0  0  0  0  0  0  0  0  0  0  0  0
   -1.6315    0.1249    0.0414 C   0  0  0  0  0  0  0  0  0  0  0  0
   -1.1900   -2.1113   -0.9829 N   0  0  0  0  0  0  0  0  0  0  0  0
   -1.0313   -0.6587   -1.1319 C   0  0  0  0  0  0  0  0  0  0  0  0
   -0.9046   -2.5589   -1.8567 H   0  0  0  0  0  0  0  0  0  0  0  0
   -0.4960   -2.4320   -0.2973 H   0  0  0  0  0  0  0  0  0  0  0  0
 14 15  1  0
 15 13  1  0
 13  1  1  0
  1  2  2  0
  2  3  1  0
  3  4  1  0
  4  5  2  0
  5  6  1  0
  6  7  2  0
  7  8  1  0
  8  9  1  0
  8 10  2  0
 10  1  1  0
 10  4  1  0
 14 16  1  0
 14 17  1  0
  3 11  1  0
  9 12  1  0
M  END
> <input_smiles>
NCCc1c[nH]c2cccc(O)c12

> <prot_variant_index>
2

> <minimizedAffinity>
0.00000

> <CNNscore>
0.6030044556

> <CNNaffinity>
3.2212455273

> <CNN_VS>
1.9424253702

> <CNNaffinity_variance>
0.9378135800

$$$$
Serotonin__p2


 17 18  0  0  0  0  0  0  0  0999 V2000
   -1.6393    0.5466    3.6494 C   0  0  0  0  0  0  0  0  0  0  0  0
   -1.9110    0.3178    4.9853 C   0  0  0  0  0  0  0  0  0  0  0  0
   -0.8093    0.6676    5.7157 N   0  0  0  0  0  0  0  0  0  0  0  0
    0.1875    1.1240    4.8866 C   0  0  0  0  0  0  0  0  0  0  0  0
    1.4840    1.5568    5.1976 C   0  0  0  0  0  0  0  0  0  0  0  0
    2.3078    1.9655    4.1445 C   0  0  0  0  0  0  0  0  0  0  0  0
    1.8455    1.9592    2.8321 C   0  0  0  0  0  0  0  0  0  0  0  0
    0.5447    1.5411    2.5459 C   0  0  0  0  0  0  0  0  0  0  0  0
    0.1509    1.6247    1.2273 O   0  0  0  0  0  0  0  0  0  0  0  0
   -0.3092    1.0897    3.5799 C   0  0  0  0  0  0  0  0  0  0  0  0
   -0.7239    0.5836    6.7191 H   0  0  0  0  0  0  0  0  0  0  0  0
   -0.8257    1.7363    1.2190 H   0  0  0  0  0  0  0  0  0  0  0  0
   -2.5565    0.2330    2.5063 C   0  0  0  0  0  0  0  0  0  0  0  0
   -4.5654   -1.2100    2.8620 N   0  0  0  0  0  0  0  0  0  0  0  0
   -4.0375    0.1603    2.8963 C   0  0  0  0  0  0  0  0  0  0  0  0
   -5.5030   -1.2053    3.2698 H   0  0  0  0  0  0  0  0  0  0  0  0
   -4.7200   -1.4600    1.8781 H   0  0  0  0  0  0  0  0  0  0  0  0
 14 15  1  0
 15 13  1  0
 13  1  1  0
  1  2  2  0
  2  3  1  0
  3  4  1  0
  4  5  2  0
  5  6  1  0
  6  7  2  0
  7  8  1  0
  8  9  1  0
  8 10  2  0
 10  1  1  0
 10  4  1  0
 14 16  1  0
 14 17  1  0
  3 11  1  0
  9 12  1  0
M  END
> <input_smiles>
NCCc1c[nH]c2cccc(O)c12

> <prot_variant_index>
2

> <minimizedAffinity>
0.00000

> <CNNscore>
0.6022414565

> <CNNaffinity>
3.2122733593

> <CNN_VS>
1.9345642328

> <CNNaffinity_variance>
0.8425769806

$$$$
Serotonin__p2


 17 18  0  0  0  0  0  0  0  0999 V2000
    7.8060    1.7867   -0.9946 C   0  0  0  0  0  0  0  0  0  0  0  0
    7.2790    1.3411   -2.1923 C   0  0  0  0  0  0  0  0  0  0  0  0
    7.4525   -0.0133   -2.2628 N   0  0  0  0  0  0  0  0  0  0  0  0
    8.0857   -0.4725   -1.1324 C   0  0  0  0  0  0  0  0  0  0  0  0
    8.4858   -1.7729   -0.7949 C   0  0  0  0  0  0  0  0  0  0  0  0
    9.1287   -1.9620    0.4321 C   0  0  0  0  0  0  0  0  0  0  0  0
    9.3461   -0.8938    1.2969 C   0  0  0  0  0  0  0  0  0  0  0  0
    8.9237    0.3906    0.9491 C   0  0  0  0  0  0  0  0  0  0  0  0
    9.1254    1.3773    1.8907 O   0  0  0  0  0  0  0  0  0  0  0  0
    8.2983    0.6289   -0.2974 C   0  0  0  0  0  0  0  0  0  0  0  0
    7.1786   -0.5968   -3.0410 H   0  0  0  0  0  0  0  0  0  0  0  0
    8.4405    2.0671    1.7446 H   0  0  0  0  0  0  0  0  0  0  0  0
    7.8817    3.2169   -0.5529 C   0  0  0  0  0  0  0  0  0  0  0  0
    6.3615    4.8940   -1.6116 N   0  0  0  0  0  0  0  0  0  0  0  0
    7.6703    4.2311   -1.6832 C   0  0  0  0  0  0  0  0  0  0  0  0
    6.3456    5.6527   -2.2967 H   0  0  0  0  0  0  0  0  0  0  0  0
    5.6567    4.2304   -1.9544 H   0  0  0  0  0  0  0  0  0  0  0  0
 14 15  1  0
 15 13  1  0
 13  1  1  0
  1  2  2  0
  2  3  1  0
  3  4  1  0
  4  5  2  0
  5  6  1  0
  6  7  2  0
  7  8  1  0
  8  9  1  0
  8 10  2  0
 10  1  1  0
 10  4  1  0
 14 16  1  0
 14 17  1  0
  3 11  1  0
  9 12  1  0
M  END
> <input_smiles>
NCCc1c[nH]c2cccc(O)c12

> <prot_variant_index>
2

> <minimizedAffinity>
0.00000

> <CNNscore>
0.6001339555

> <CNNaffinity>
3.1446590424

> <CNN_VS>
1.8872166872

> <CNNaffinity_variance>
0.5147588253

$$$$
Serotonin__p2


 17 18  0  0  0  0  0  0  0  0999 V2000
    5.8064    7.3386    1.9807 C   0  0  0  0  0  0  0  0  0  0  0  0
    6.5360    7.5817    3.1293 C   0  0  0  0  0  0  0  0  0  0  0  0
    7.5874    6.7082    3.1655 N   0  0  0  0  0  0  0  0  0  0  0  0
    7.5665    5.8906    2.0608 C   0  0  0  0  0  0  0  0  0  0  0  0
    8.4263    4.8421    1.7053 C   0  0  0  0  0  0  0  0  0  0  0  0
    8.1670    4.1585    0.5136 C   0  0  0  0  0  0  0  0  0  0  0  0
    7.0992    4.5226   -0.3010 C   0  0  0  0  0  0  0  0  0  0  0  0
    6.2654    5.5815    0.0628 C   0  0  0  0  0  0  0  0  0  0  0  0
    5.2701    5.9123   -0.8320 O   0  0  0  0  0  0  0  0  0  0  0  0
    6.4752    6.2774    1.2767 C   0  0  0  0  0  0  0  0  0  0  0  0
    8.2723    6.6501    3.9062 H   0  0  0  0  0  0  0  0  0  0  0  0
    5.0655    6.8653   -0.7047 H   0  0  0  0  0  0  0  0  0  0  0  0
    4.5352    8.0308    1.5916 C   0  0  0  0  0  0  0  0  0  0  0  0
    4.7101    8.8692   -0.7559 N   0  0  0  0  0  0  0  0  0  0  0  0
    4.7390    9.2361    0.6661 C   0  0  0  0  0  0  0  0  0  0  0  0
    4.7035    9.7278   -1.3111 H   0  0  0  0  0  0  0  0  0  0  0  0
    5.6099    8.4295   -0.9828 H   0  0  0  0  0  0  0  0  0  0  0  0
 14 15  1  0
 15 13  1  0
 13  1  1  0
  1  2  2  0
  2  3  1  0
  3  4  1  0
  4  5  2  0
  5  6  1  0
  6  7  2  0
  7  8  1  0
  8  9  1  0
  8 10  2  0
 10  1  1  0
 10  4  1  0
 14 16  1  0
 14 17  1  0
  3 11  1  0
  9 12  1  0
M  END
> <input_smiles>
NCCc1c[nH]c2cccc(O)c12

> <prot_variant_index>
2

> <minimizedAffinity>
0.00000

> <CNNscore>
0.5909283757

> <CNNaffinity>
3.1483592987

> <CNN_VS>
1.8604547977

> <CNNaffinity_variance>
0.7567537427

$$$$
Serotonin__p3


 16 17  0  0  0  0  0  0  0  0999 V2000
    6.1751    0.5467    3.6494 C   0  0  0  0  0  0  0  0  0  0  0  0
    6.3685   -0.1282    4.8397 C   0  0  0  0  0  0  0  0  0  0  0  0
    5.1428   -0.4036    5.3680 N   0  0  0  0  0  0  0  0  0  0  0  0
    4.1404    0.0698    4.5553 C   0  0  0  0  0  0  0  0  0  0  0  0
    2.7549   -0.0092    4.7338 C   0  0  0  0  0  0  0  0  0  0  0  0
    1.9497    0.5572    3.7523 C   0  0  0  0  0  0  0  0  0  0  0  0
    2.5177    1.1757    2.6402 C   0  0  0  0  0  0  0  0  0  0  0  0
    3.9105    1.2677    2.4385 C   0  0  0  0  0  0  0  0  0  0  0  0
    4.4681    1.8231    1.4378 O   0  0  0  0  0  0  0  0  0  0  0  0
    4.7441    0.6853    3.4486 C   0  0  0  0  0  0  0  0  0  0  0  0
    4.9798   -0.8882    6.2360 H   0  0  0  0  0  0  0  0  0  0  0  0
    7.2590    1.0400    2.7402 C   0  0  0  0  0  0  0  0  0  0  0  0
    6.8804    0.3487    0.3752 N   0  0  0  0  0  0  0  0  0  0  0  0
    7.5902    0.0348    1.6312 C   0  0  0  0  0  0  0  0  0  0  0  0
    5.8861    0.3537    0.6228 H   0  0  0  0  0  0  0  0  0  0  0  0
    6.9841   -0.4637   -0.2307 H   0  0  0  0  0  0  0  0  0  0  0  0
 13 14  1  0
 14 12  1  0
 12  1  1  0
  1  2  2  0
  2  3  1  0
  3  4  1  0
  4  5  2  0
  5  6  1  0
  6  7  2  0
  7  8  1  0
  8  9  1  0
  8 10  2  0
 10  1  1  0
 10  4  1  0
 13 15  1  0
 13 16  1  0
  3 11  1  0
M  CHG 1   9  -1
M  END
> <input_smiles>
NCCc1c[nH]c2cccc(O)c12

> <prot_variant_index>
3

> <minimizedAffinity>
0.00000

> <CNNscore>
0.7590058446

> <CNNaffinity>
3.4478063583

> <CNN_VS>
2.6169052124

> <CNNaffinity_variance>
1.3113715649

$$$$
Serotonin__p3


 16 17  0  0  0  0  0  0  0  0999 V2000
   -3.2594    1.1759   -0.3613 C   0  0  0  0  0  0  0  0  0  0  0  0
   -3.0706   -0.1739   -0.5893 C   0  0  0  0  0  0  0  0  0  0  0  0
   -1.7572   -0.4568   -0.3608 N   0  0  0  0  0  0  0  0  0  0  0  0
   -1.0703    0.6726    0.0161 C   0  0  0  0  0  0  0  0  0  0  0  0
    0.2840    0.8089    0.3402 C   0  0  0  0  0  0  0  0  0  0  0  0
    0.7336    2.0764    0.6919 C   0  0  0  0  0  0  0  0  0  0  0  0
   -0.1446    3.1581    0.7155 C   0  0  0  0  0  0  0  0  0  0  0  0
   -1.5129    3.0455    0.3929 C   0  0  0  0  0  0  0  0  0  0  0  0
   -2.3467    4.0074    0.4026 O   0  0  0  0  0  0  0  0  0  0  0  0
   -1.9802    1.7402    0.0292 C   0  0  0  0  0  0  0  0  0  0  0  0
   -1.3344   -1.3665   -0.4522 H   0  0  0  0  0  0  0  0  0  0  0  0
   -4.5583    1.9102   -0.4970 C   0  0  0  0  0  0  0  0  0  0  0  0
   -4.2645    3.9289   -1.9299 N   0  0  0  0  0  0  0  0  0  0  0  0
   -4.7337    2.5296   -1.8883 C   0  0  0  0  0  0  0  0  0  0  0  0
   -4.8050    4.4148   -1.2077 H   0  0  0  0  0  0  0  0  0  0  0  0
   -4.6023    4.3251   -2.8055 H   0  0  0  0  0  0  0  0  0  0  0  0
 13 14  1  0
 14 12  1  0
 12  1  1  0
  1  2  2  0
  2  3  1  0
  3  4  1  0
  4  5  2  0
  5  6  1  0
  6  7  2  0
  7  8  1  0
  8  9  1  0
  8 10  2  0
 10  1  1  0
 10  4  1  0
 13 15  1  0
 13 16  1  0
  3 11  1  0
M  CHG 1   9  -1
M  END
> <input_smiles>
NCCc1c[nH]c2cccc(O)c12

> <prot_variant_index>
3

> <minimizedAffinity>
0.00000

> <CNNscore>
0.7383022904

> <CNNaffinity>
3.4111282825

> <CNN_VS>
2.5184438229

> <CNNaffinity_variance>
0.9956522584

$$$$
Serotonin__p3


 16 17  0  0  0  0  0  0  0  0999 V2000
   -2.5796    0.9886   -1.2184 C   0  0  0  0  0  0  0  0  0  0  0  0
   -2.2483    2.3110   -1.4447 C   0  0  0  0  0  0  0  0  0  0  0  0
   -0.9908    2.3432   -1.9690 N   0  0  0  0  0  0  0  0  0  0  0  0
   -0.4806    1.0734   -2.0988 C   0  0  0  0  0  0  0  0  0  0  0  0
    0.7662    0.6749   -2.5932 C   0  0  0  0  0  0  0  0  0  0  0  0
    1.0394   -0.6879   -2.6170 C   0  0  0  0  0  0  0  0  0  0  0  0
    0.0963   -1.6074   -2.1622 C   0  0  0  0  0  0  0  0  0  0  0  0
   -1.1662   -1.2300   -1.6597 C   0  0  0  0  0  0  0  0  0  0  0  0
   -2.0543   -2.0375   -1.2355 O   0  0  0  0  0  0  0  0  0  0  0  0
   -1.4516    0.1744   -1.6329 C   0  0  0  0  0  0  0  0  0  0  0  0
   -0.4915    3.1781   -2.2304 H   0  0  0  0  0  0  0  0  0  0  0  0
   -3.8754    0.4993   -0.6472 C   0  0  0  0  0  0  0  0  0  0  0  0
   -4.8583   -1.2921   -2.0751 N   0  0  0  0  0  0  0  0  0  0  0  0
   -4.8941    0.1445   -1.7364 C   0  0  0  0  0  0  0  0  0  0  0  0
   -3.8915   -1.4767   -2.3601 H   0  0  0  0  0  0  0  0  0  0  0  0
   -5.3982   -1.4046   -2.9315 H   0  0  0  0  0  0  0  0  0  0  0  0
 13 14  1  0
 14 12  1  0
 12  1  1  0
  1  2  2  0
  2  3  1  0
  3  4  1  0
  4  5  2  0
  5  6  1  0
  6  7  2  0
  7  8  1  0
  8  9  1  0
  8 10  2  0
 10  1  1  0
 10  4  1  0
 13 15  1  0
 13 16  1  0
  3 11  1  0
M  CHG 1   9  -1
M  END
> <input_smiles>
NCCc1c[nH]c2cccc(O)c12

> <prot_variant_index>
3

> <minimizedAffinity>
0.00000

> <CNNscore>
0.7276707888

> <CNNaffinity>
3.4310791492

> <CNN_VS>
2.4966959953

> <CNNaffinity_variance>
0.9807164073

$$$$
Serotonin__p3


 16 17  0  0  0  0  0  0  0  0999 V2000
    3.7721    2.0808   -2.2882 C   0  0  0  0  0  0  0  0  0  0  0  0
    4.4096    1.4435   -3.3357 C   0  0  0  0  0  0  0  0  0  0  0  0
    4.4435    2.3052   -4.3909 N   0  0  0  0  0  0  0  0  0  0  0  0
    3.8462    3.5004   -4.0679 C   0  0  0  0  0  0  0  0  0  0  0  0
    3.6768    4.6397   -4.8622 C   0  0  0  0  0  0  0  0  0  0  0  0
    3.0304    5.7290   -4.2894 C   0  0  0  0  0  0  0  0  0  0  0  0
    2.5754    5.6709   -2.9735 C   0  0  0  0  0  0  0  0  0  0  0  0
    2.7344    4.5342   -2.1540 C   0  0  0  0  0  0  0  0  0  0  0  0
    2.3340    4.4413   -0.9490 O   0  0  0  0  0  0  0  0  0  0  0  0
    3.3999    3.4088   -2.7411 C   0  0  0  0  0  0  0  0  0  0  0  0
    4.8486    2.1055   -5.2914 H   0  0  0  0  0  0  0  0  0  0  0  0
    3.5187    1.4927   -0.9337 C   0  0  0  0  0  0  0  0  0  0  0  0
    3.1060   -0.6180    0.3268 N   0  0  0  0  0  0  0  0  0  0  0  0
    3.5906   -0.0386   -0.9418 C   0  0  0  0  0  0  0  0  0  0  0  0
    3.6908   -0.1968    1.0550 H   0  0  0  0  0  0  0  0  0  0  0  0
    3.3780   -1.5998    0.3231 H   0  0  0  0  0  0  0  0  0  0  0  0
 13 14  1  0
 14 12  1  0
 12  1  1  0
  1  2  2  0
  2  3  1  0
  3  4  1  0
  4  5  2  0
  5  6  1  0
  6  7  2  0
  7  8  1  0
  8  9  1  0
  8 10  2  0
 10  1  1  0
 10  4  1  0
 13 15  1  0
 13 16  1  0
  3 11  1  0
M  CHG 1   9  -1
M  END
> <input_smiles>
NCCc1c[nH]c2cccc(O)c12

> <prot_variant_index>
3

> <minimizedAffinity>
0.00000

> <CNNscore>
0.7177010179

> <CNNaffinity>
3.4101469517

> <CNN_VS>
2.4474658966

> <CNNaffinity_variance>
1.6981996298

$$$$
Serotonin__p3


 16 17  0  0  0  0  0  0  0  0999 V2000
    2.6052    0.1543   -3.4088 C   0  0  0  0  0  0  0  0  0  0  0  0
    2.5132   -0.6589   -4.5223 C   0  0  0  0  0  0  0  0  0  0  0  0
    2.7922    0.1007   -5.6189 N   0  0  0  0  0  0  0  0  0  0  0  0
    3.0699    1.3981   -5.2595 C   0  0  0  0  0  0  0  0  0  0  0  0
    3.4040    2.4829   -6.0775 C   0  0  0  0  0  0  0  0  0  0  0  0
    3.6389    3.7043   -5.4565 C   0  0  0  0  0  0  0  0  0  0  0  0
    3.5409    3.8252   -4.0717 C   0  0  0  0  0  0  0  0  0  0  0  0
    3.2058    2.7467   -3.2270 C   0  0  0  0  0  0  0  0  0  0  0  0
    3.1065    2.8156   -1.9597 O   0  0  0  0  0  0  0  0  0  0  0  0
    2.9623    1.4858   -3.8636 C   0  0  0  0  0  0  0  0  0  0  0  0
    2.7975   -0.2317   -6.5698 H   0  0  0  0  0  0  0  0  0  0  0  0
    2.3748   -0.2766   -1.9925 C   0  0  0  0  0  0  0  0  0  0  0  0
    2.3322   -2.7005   -1.4114 N   0  0  0  0  0  0  0  0  0  0  0  0
    1.5374   -1.5576   -1.9031 C   0  0  0  0  0  0  0  0  0  0  0  0
    3.1164   -2.7834   -2.0657 H   0  0  0  0  0  0  0  0  0  0  0  0
    1.7762   -3.5375   -1.5786 H   0  0  0  0  0  0  0  0  0  0  0  0
 13 14  1  0
 14 12  1  0
 12  1  1  0
  1  2  2  0
  2  3  1  0
  3  4  1  0
  4  5  2  0
  5  6  1  0
  6  7  2  0
  7  8  1  0
  8  9  1  0
  8 10  2  0
 10  1  1  0
 10  4  1  0
 13 15  1  0
 13 16  1  0
  3 11  1  0
M  CHG 1   9  -1
M  END
> <input_smiles>
NCCc1c[nH]c2cccc(O)c12

> <prot_variant_index>
3

> <minimizedAffinity>
0.00000

> <CNNscore>
0.7009168267

> <CNNaffinity>
3.4106569290

> <CNN_VS>
2.3905868530

> <CNNaffinity_variance>
1.7410277128

$$$$
Serotonin__p3


 16 17  0  0  0  0  0  0  0  0999 V2000
    6.8347   -0.8173   -2.4558 C   0  0  0  0  0  0  0  0  0  0  0  0
    8.1784   -0.9575   -2.1650 C   0  0  0  0  0  0  0  0  0  0  0  0
    8.8260   -1.2721   -3.3222 N   0  0  0  0  0  0  0  0  0  0  0  0
    7.9445   -1.3412   -4.3746 C   0  0  0  0  0  0  0  0  0  0  0  0
    8.2035   -1.6315   -5.7186 C   0  0  0  0  0  0  0  0  0  0  0  0
    7.1219   -1.6386   -6.5919 C   0  0  0  0  0  0  0  0  0  0  0  0
    5.8363   -1.3649   -6.1292 C   0  0  0  0  0  0  0  0  0  0  0  0
    5.5507   -1.0698   -4.7800 C   0  0  0  0  0  0  0  0  0  0  0  0
    4.3922   -0.8143   -4.3180 O   0  0  0  0  0  0  0  0  0  0  0  0
    6.6632   -1.0620   -3.8763 C   0  0  0  0  0  0  0  0  0  0  0  0
    9.8165   -1.4344   -3.4080 H   0  0  0  0  0  0  0  0  0  0  0  0
    5.7601   -0.4735   -1.4700 C   0  0  0  0  0  0  0  0  0  0  0  0
    5.4071    0.1274    0.9234 N   0  0  0  0  0  0  0  0  0  0  0  0
    6.2169   -0.6691   -0.0198 C   0  0  0  0  0  0  0  0  0  0  0  0
    5.5002    1.0968    0.6050 H   0  0  0  0  0  0  0  0  0  0  0  0
    5.8958    0.1088    1.8171 H   0  0  0  0  0  0  0  0  0  0  0  0
 13 14  1  0
 14 12  1  0
 12  1  1  0
  1  2  2  0
  2  3  1  0
  3  4  1  0
  4  5  2  0
  5  6  1  0
  6  7  2  0
  7  8  1  0
  8  9  1  0
  8 10  2  0
 10  1  1  0
 10  4  1  0
 13 15  1  0
 13 16  1  0
  3 11  1  0
M  CHG 1   9  -1
M  END
> <input_smiles>
NCCc1c[nH]c2cccc(O)c12

> <prot_variant_index>
3

> <minimizedAffinity>
0.00000

> <CNNscore>
0.6989495754

> <CNNaffinity>
3.3256475925

> <CNN_VS>
2.3244600296

> <CNNaffinity_variance>
1.3224133253

$$$$
Serotonin__p3


 16 17  0  0  0  0  0  0  0  0999 V2000
   -7.4838   -1.0350    0.7142 C   0  0  0  0  0  0  0  0  0  0  0  0
   -6.3304   -0.4583    0.2175 C   0  0  0  0  0  0  0  0  0  0  0  0
   -5.4350   -1.4566   -0.0254 N   0  0  0  0  0  0  0  0  0  0  0  0
   -5.9677   -2.6824    0.2954 C   0  0  0  0  0  0  0  0  0  0  0  0
   -5.3806   -3.9483    0.1931 C   0  0  0  0  0  0  0  0  0  0  0  0
   -6.1427   -5.0413    0.5896 C   0  0  0  0  0  0  0  0  0  0  0  0
   -7.4395   -4.8643    1.0681 C   0  0  0  0  0  0  0  0  0  0  0  0
   -8.0521   -3.5990    1.1805 C   0  0  0  0  0  0  0  0  0  0  0  0
   -9.2325   -3.3952    1.6116 O   0  0  0  0  0  0  0  0  0  0  0  0
   -7.2694   -2.4695    0.7731 C   0  0  0  0  0  0  0  0  0  0  0  0
   -4.5052   -1.3268   -0.3908 H   0  0  0  0  0  0  0  0  0  0  0  0
   -8.7250   -0.2977    1.1150 C   0  0  0  0  0  0  0  0  0  0  0  0
   -9.3785    1.5415   -0.4357 N   0  0  0  0  0  0  0  0  0  0  0  0
   -8.6406    1.1995    0.7966 C   0  0  0  0  0  0  0  0  0  0  0  0
   -8.9649    0.9558   -1.1676 H   0  0  0  0  0  0  0  0  0  0  0  0
   -9.1040    2.4895   -0.6878 H   0  0  0  0  0  0  0  0  0  0  0  0
 13 14  1  0
 14 12  1  0
 12  1  1  0
  1  2  2  0
  2  3  1  0
  3  4  1  0
  4  5  2  0
  5  6  1  0
  6  7  2  0
  7  8  1  0
  8  9  1  0
  8 10  2  0
 10  1  1  0
 10  4  1  0
 13 15  1  0
 13 16  1  0
  3 11  1  0
M  CHG 1   9  -1
M  END
> <input_smiles>
NCCc1c[nH]c2cccc(O)c12

> <prot_variant_index>
3

> <minimizedAffinity>
0.00000

> <CNNscore>
0.6983352900

> <CNNaffinity>
3.4432876110

> <CNN_VS>
2.4045691490

> <CNNaffinity_variance>
1.3626841307

$$$$
Serotonin__p3


 16 17  0  0  0  0  0  0  0  0999 V2000
   -3.4849    3.1304   -2.0744 C   0  0  0  0  0  0  0  0  0  0  0  0
   -3.3772    4.2592   -2.8644 C   0  0  0  0  0  0  0  0  0  0  0  0
   -2.2875    4.9613   -2.4440 N   0  0  0  0  0  0  0  0  0  0  0  0
   -1.6676    4.3240   -1.3956 C   0  0  0  0  0  0  0  0  0  0  0  0
   -0.5255    4.7102   -0.6855 C   0  0  0  0  0  0  0  0  0  0  0  0
   -0.1002    3.8784    0.3440 C   0  0  0  0  0  0  0  0  0  0  0  0
   -0.7965    2.7090    0.6432 C   0  0  0  0  0  0  0  0  0  0  0  0
   -1.9496    2.2993   -0.0579 C   0  0  0  0  0  0  0  0  0  0  0  0
   -2.6130    1.2400    0.1839 O   0  0  0  0  0  0  0  0  0  0  0  0
   -2.3916    3.1545   -1.1198 C   0  0  0  0  0  0  0  0  0  0  0  0
   -1.9686    5.8311   -2.8397 H   0  0  0  0  0  0  0  0  0  0  0  0
   -4.5459    2.0794   -2.1948 C   0  0  0  0  0  0  0  0  0  0  0  0
   -3.5087   -0.1837   -2.3254 N   0  0  0  0  0  0  0  0  0  0  0  0
   -4.1148    0.9185   -3.0985 C   0  0  0  0  0  0  0  0  0  0  0  0
   -2.7234    0.2411   -1.8227 H   0  0  0  0  0  0  0  0  0  0  0  0
   -3.0674   -0.8065   -3.0001 H   0  0  0  0  0  0  0  0  0  0  0  0
 13 14  1  0
 14 12  1  0
 12  1  1  0
  1  2  2  0
  2  3  1  0
  3  4  1  0
  4  5  2  0
  5  6  1  0
  6  7  2  0
  7  8  1  0
  8  9  1  0
  8 10  2  0
 10  1  1  0
 10  4  1  0
 13 15  1  0
 13 16  1  0
  3 11  1  0
M  CHG 1   9  -1
M  END
> <input_smiles>
NCCc1c[nH]c2cccc(O)c12

> <prot_variant_index>
3

> <minimizedAffinity>
0.00000

> <CNNscore>
0.6979242563

> <CNNaffinity>
3.4275195599

> <CNN_VS>
2.3921489716

> <CNNaffinity_variance>
1.3604940176

$$$$
Serotonin__p3


 16 17  0  0  0  0  0  0  0  0999 V2000
    3.2586    0.4971   -1.6111 C   0  0  0  0  0  0  0  0  0  0  0  0
    1.9232    0.2439   -1.8612 C   0  0  0  0  0  0  0  0  0  0  0  0
    1.6588    0.6231   -3.1432 N   0  0  0  0  0  0  0  0  0  0  0  0
    2.7875    1.1193   -3.7510 C   0  0  0  0  0  0  0  0  0  0  0  0
    2.9402    1.6083   -5.0530 C   0  0  0  0  0  0  0  0  0  0  0  0
    4.2024    2.0574   -5.4241 C   0  0  0  0  0  0  0  0  0  0  0  0
    5.2631    2.0148   -4.5212 C   0  0  0  0  0  0  0  0  0  0  0  0
    5.1335    1.5267   -3.2045 C   0  0  0  0  0  0  0  0  0  0  0  0
    6.0762    1.4707   -2.3506 O   0  0  0  0  0  0  0  0  0  0  0  0
    3.8335    1.0632   -2.8178 C   0  0  0  0  0  0  0  0  0  0  0  0
    0.7617    0.5542   -3.5962 H   0  0  0  0  0  0  0  0  0  0  0  0
    3.9704    0.2292   -0.3202 C   0  0  0  0  0  0  0  0  0  0  0  0
    6.0718   -1.0577   -0.6976 N   0  0  0  0  0  0  0  0  0  0  0  0
    4.6510   -1.1444   -0.3055 C   0  0  0  0  0  0  0  0  0  0  0  0
    6.0679   -0.6262   -1.6270 H   0  0  0  0  0  0  0  0  0  0  0  0
    6.3881   -2.0115   -0.8650 H   0  0  0  0  0  0  0  0  0  0  0  0
 13 14  1  0
 14 12  1  0
 12  1  1  0
  1  2  2  0
  2  3  1  0
  3  4  1  0
  4  5  2  0
  5  6  1  0
  6  7  2  0
  7  8  1  0
  8  9  1  0
  8 10  2  0
 10  1  1  0
 10  4  1  0
 13 15  1  0
 13 16  1  0
  3 11  1  0
M  CHG 1   9  -1
M  END
> <input_smiles>
NCCc1c[nH]c2cccc(O)c12

> <prot_variant_index>
3

> <minimizedAffinity>
0.00000

> <CNNscore>
0.6961184740

> <CNNaffinity>
3.4301605225

> <CNN_VS>
2.3877980709

> <CNNaffinity_variance>
1.6312545538

$$$$
Serotonin__p3


 16 17  0  0  0  0  0  0  0  0999 V2000
   -3.3754    1.2532   -3.1572 C   0  0  0  0  0  0  0  0  0  0  0  0
   -3.2677    2.3819   -3.9473 C   0  0  0  0  0  0  0  0  0  0  0  0
   -2.1780    3.0840   -3.5268 N   0  0  0  0  0  0  0  0  0  0  0  0
   -1.5581    2.4467   -2.4785 C   0  0  0  0  0  0  0  0  0  0  0  0
   -0.4160    2.8329   -1.7684 C   0  0  0  0  0  0  0  0  0  0  0  0
    0.0093    2.0011   -0.7389 C   0  0  0  0  0  0  0  0  0  0  0  0
   -0.6870    0.8318   -0.4396 C   0  0  0  0  0  0  0  0  0  0  0  0
   -1.8401    0.4220   -1.1408 C   0  0  0  0  0  0  0  0  0  0  0  0
   -2.5035   -0.6373   -0.8990 O   0  0  0  0  0  0  0  0  0  0  0  0
   -2.2821    1.2773   -2.2026 C   0  0  0  0  0  0  0  0  0  0  0  0
   -1.8591    3.9538   -3.9225 H   0  0  0  0  0  0  0  0  0  0  0  0
   -4.4364    0.2021   -3.2776 C   0  0  0  0  0  0  0  0  0  0  0  0
   -3.4369   -2.0793   -3.3798 N   0  0  0  0  0  0  0  0  0  0  0  0
   -3.9996   -0.9658   -4.1694 C   0  0  0  0  0  0  0  0  0  0  0  0
   -2.6594   -1.6691   -2.8534 H   0  0  0  0  0  0  0  0  0  0  0  0
   -2.9870   -2.7096   -4.0417 H   0  0  0  0  0  0  0  0  0  0  0  0
 13 14  1  0
 14 12  1  0
 12  1  1  0
  1  2  2  0
  2  3  1  0
  3  4  1  0
  4  5  2  0
  5  6  1  0
  6  7  2  0
  7  8  1  0
  8  9  1  0
  8 10  2  0
 10  1  1  0
 10  4  1  0
 13 15  1  0
 13 16  1  0
  3 11  1  0
M  CHG 1   9  -1
M  END
> <input_smiles>
NCCc1c[nH]c2cccc(O)c12

> <prot_variant_index>
3

> <minimizedAffinity>
0.00000

> <CNNscore>
0.6956766248

> <CNNaffinity>
3.4231386185

> <CNN_VS>
2.3813974857

> <CNNaffinity_variance>
1.3413233757

$$$$
Serotonin__p3


 16 17  0  0  0  0  0  0  0  0999 V2000
    7.0043   -1.0363    3.0396 C   0  0  0  0  0  0  0  0  0  0  0  0
    6.4238   -1.1877    4.2845 C   0  0  0  0  0  0  0  0  0  0  0  0
    5.1313   -0.7645    4.1972 N   0  0  0  0  0  0  0  0  0  0  0  0
    4.8392   -0.3386    2.9233 C   0  0  0  0  0  0  0  0  0  0  0  0
    3.6342    0.1644    2.4208 C   0  0  0  0  0  0  0  0  0  0  0  0
    3.6025    0.5290    1.0797 C   0  0  0  0  0  0  0  0  0  0  0  0
    4.7365    0.3919    0.2815 C   0  0  0  0  0  0  0  0  0  0  0  0
    5.9615   -0.1122    0.7652 C   0  0  0  0  0  0  0  0  0  0  0  0
    7.0185   -0.2531    0.0697 O   0  0  0  0  0  0  0  0  0  0  0  0
    5.9985   -0.4887    2.1477 C   0  0  0  0  0  0  0  0  0  0  0  0
    4.4691   -0.7595    4.9563 H   0  0  0  0  0  0  0  0  0  0  0  0
    8.4198   -1.3808    2.6895 C   0  0  0  0  0  0  0  0  0  0  0  0
    8.5356   -2.8010    0.6440 N   0  0  0  0  0  0  0  0  0  0  0  0
    8.5497   -2.7983    2.1203 C   0  0  0  0  0  0  0  0  0  0  0  0
    7.6546   -2.3474    0.3831 H   0  0  0  0  0  0  0  0  0  0  0  0
    8.4145   -3.7700    0.3540 H   0  0  0  0  0  0  0  0  0  0  0  0
 13 14  1  0
 14 12  1  0
 12  1  1  0
  1  2  2  0
  2  3  1  0
  3  4  1  0
  4  5  2  0
  5  6  1  0
  6  7  2  0
  7  8  1  0
  8  9  1  0
  8 10  2  0
 10  1  1  0
 10  4  1  0
 13 15  1  0
 13 16  1  0
  3 11  1  0
M  CHG 1   9  -1
M  END
> <input_smiles>
NCCc1c[nH]c2cccc(O)c12

> <prot_variant_index>
3

> <minimizedAffinity>
0.00000

> <CNNscore>
0.6893396974

> <CNNaffinity>
3.2843902111

> <CNN_VS>
2.2640604973

> <CNNaffinity_variance>
1.1527363062

$$$$
Serotonin__p3


 16 17  0  0  0  0  0  0  0  0999 V2000
    7.4033   -2.1057   -1.0493 C   0  0  0  0  0  0  0  0  0  0  0  0
    8.5659   -1.7925   -1.7276 C   0  0  0  0  0  0  0  0  0  0  0  0
    8.2675   -1.7152   -3.0551 N   0  0  0  0  0  0  0  0  0  0  0  0
    6.9339   -1.9667   -3.2738 C   0  0  0  0  0  0  0  0  0  0  0  0
    6.2307   -1.9828   -4.4834 C   0  0  0  0  0  0  0  0  0  0  0  0
    4.8715   -2.2695   -4.4297 C   0  0  0  0  0  0  0  0  0  0  0  0
    4.2499   -2.5284   -3.2098 C   0  0  0  0  0  0  0  0  0  0  0  0
    4.9374   -2.5181   -1.9784 C   0  0  0  0  0  0  0  0  0  0  0  0
    4.4070   -2.7487   -0.8443 O   0  0  0  0  0  0  0  0  0  0  0  0
    6.3391   -2.2234   -2.0295 C   0  0  0  0  0  0  0  0  0  0  0  0
    8.9261   -1.5031   -3.7873 H   0  0  0  0  0  0  0  0  0  0  0  0
    7.2801   -2.2873    0.4328 C   0  0  0  0  0  0  0  0  0  0  0  0
    7.9669   -0.1572    1.5305 N   0  0  0  0  0  0  0  0  0  0  0  0
    6.8237   -1.0060    1.1399 C   0  0  0  0  0  0  0  0  0  0  0  0
    8.5521   -0.7520    2.1250 H   0  0  0  0  0  0  0  0  0  0  0  0
    7.6022    0.5510    2.1655 H   0  0  0  0  0  0  0  0  0  0  0  0
 13 14  1  0
 14 12  1  0
 12  1  1  0
  1  2  2  0
  2  3  1  0
  3  4  1  0
  4  5  2  0
  5  6  1  0
  6  7  2  0
  7  8  1  0
  8  9  1  0
  8 10  2  0
 10  1  1  0
 10  4  1  0
 13 15  1  0
 13 16  1  0
  3 11  1  0
M  CHG 1   9  -1
M  END
> <input_smiles>
NCCc1c[nH]c2cccc(O)c12

> <prot_variant_index>
3

> <minimizedAffinity>
0.00000

> <CNNscore>
0.6861618757

> <CNNaffinity>
3.2131958008

> <CNN_VS>
2.2047724724

> <CNNaffinity_variance>
1.1854859591

$$$$
Serotonin__p3


 16 17  0  0  0  0  0  0  0  0999 V2000
    7.4033   -2.1057   -1.0494 C   0  0  0  0  0  0  0  0  0  0  0  0
    6.3433   -2.3803   -1.8925 C   0  0  0  0  0  0  0  0  0  0  0  0
    5.2209   -1.8357   -1.3440 N   0  0  0  0  0  0  0  0  0  0  0  0
    5.5111   -1.2036   -0.1583 C   0  0  0  0  0  0  0  0  0  0  0  0
    4.6480   -0.5236    0.7078 C   0  0  0  0  0  0  0  0  0  0  0  0
    5.2006    0.0324    1.8559 C   0  0  0  0  0  0  0  0  0  0  0  0
    6.5635   -0.0926    2.1181 C   0  0  0  0  0  0  0  0  0  0  0  0
    7.4527   -0.7731    1.2606 C   0  0  0  0  0  0  0  0  0  0  0  0
    8.7021   -0.9091    1.4636 O   0  0  0  0  0  0  0  0  0  0  0  0
    6.8867   -1.3482    0.0760 C   0  0  0  0  0  0  0  0  0  0  0  0
    4.2974   -1.8829   -1.7435 H   0  0  0  0  0  0  0  0  0  0  0  0
    8.8253   -2.5221   -1.2716 C   0  0  0  0  0  0  0  0  0  0  0  0
    9.5716   -3.1417   -3.5680 N   0  0  0  0  0  0  0  0  0  0  0  0
    8.9490   -3.6317   -2.3222 C   0  0  0  0  0  0  0  0  0  0  0  0
    8.9782   -2.3659   -3.8776 H   0  0  0  0  0  0  0  0  0  0  0  0
    9.4273   -3.8643   -4.2714 H   0  0  0  0  0  0  0  0  0  0  0  0
 13 14  1  0
 14 12  1  0
 12  1  1  0
  1  2  2  0
  2  3  1  0
  3  4  1  0
  4  5  2  0
  5  6  1  0
  6  7  2  0
  7  8  1  0
  8  9  1  0
  8 10  2  0
 10  1  1  0
 10  4  1  0
 13 15  1  0
 13 16  1  0
  3 11  1  0
M  CHG 1   9  -1
M  END
> <input_smiles>
NCCc1c[nH]c2cccc(O)c12

> <prot_variant_index>
3

> <minimizedAffinity>
0.00000

> <CNNscore>
0.6828983426

> <CNNaffinity>
3.3919680119

> <CNN_VS>
2.3163692951

> <CNNaffinity_variance>
1.3889368773

$$$$
Serotonin__p3


 16 17  0  0  0  0  0  0  0  0999 V2000
    5.1428    1.6990   -1.0050 C   0  0  0  0  0  0  0  0  0  0  0  0
    3.7738    1.7134   -0.8171 C   0  0  0  0  0  0  0  0  0  0  0  0
    3.2330    2.5498   -1.7474 N   0  0  0  0  0  0  0  0  0  0  0  0
    4.2102    3.0887   -2.5500 C   0  0  0  0  0  0  0  0  0  0  0  0
    4.0748    3.9837   -3.6169 C   0  0  0  0  0  0  0  0  0  0  0  0
    5.2356    4.3791   -4.2718 C   0  0  0  0  0  0  0  0  0  0  0  0
    6.4774    3.8929   -3.8678 C   0  0  0  0  0  0  0  0  0  0  0  0
    6.6389    2.9908   -2.7959 C   0  0  0  0  0  0  0  0  0  0  0  0
    7.7538    2.5237   -2.3966 O   0  0  0  0  0  0  0  0  0  0  0  0
    5.4445    2.5810   -2.1178 C   0  0  0  0  0  0  0  0  0  0  0  0
    2.2513    2.7540   -1.8443 H   0  0  0  0  0  0  0  0  0  0  0  0
    6.1260    0.9088   -0.1964 C   0  0  0  0  0  0  0  0  0  0  0  0
    8.0006    2.3417    0.6081 N   0  0  0  0  0  0  0  0  0  0  0  0
    6.7095    1.7209    0.9655 C   0  0  0  0  0  0  0  0  0  0  0  0
    8.6036    1.5631    0.3253 H   0  0  0  0  0  0  0  0  0  0  0  0
    8.4145    2.6773    1.4763 H   0  0  0  0  0  0  0  0  0  0  0  0
 13 14  1  0
 14 12  1  0
 12  1  1  0
  1  2  2  0
  2  3  1  0
  3  4  1  0
  4  5  2  0
  5  6  1  0
  6  7  2  0
  7  8  1  0
  8  9  1  0
  8 10  2  0
 10  1  1  0
 10  4  1  0
 13 15  1  0
 13 16  1  0
  3 11  1  0
M  CHG 1   9  -1
M  END
> <input_smiles>
NCCc1c[nH]c2cccc(O)c12

> <prot_variant_index>
3

> <minimizedAffinity>
0.00000

> <CNNscore>
0.6821100712

> <CNNaffinity>
3.4879686832

> <CNN_VS>
2.3791785240

> <CNNaffinity_variance>
2.2656285763

$$$$
Serotonin__p3


 16 17  0  0  0  0  0  0  0  0999 V2000
    3.5873   -1.8153   -0.2443 C   0  0  0  0  0  0  0  0  0  0  0  0
    4.2158   -2.4038   -1.3252 C   0  0  0  0  0  0  0  0  0  0  0  0
    5.4965   -2.6912   -0.9585 N   0  0  0  0  0  0  0  0  0  0  0  0
    5.7322   -2.3101    0.3410 C   0  0  0  0  0  0  0  0  0  0  0  0
    6.9070   -2.4302    1.0915 C   0  0  0  0  0  0  0  0  0  0  0  0
    6.8819   -1.9597    2.3994 C   0  0  0  0  0  0  0  0  0  0  0  0
    5.7229   -1.3933    2.9262 C   0  0  0  0  0  0  0  0  0  0  0  0
    4.5275   -1.2613    2.1895 C   0  0  0  0  0  0  0  0  0  0  0  0
    3.4490   -0.7509    2.6335 O   0  0  0  0  0  0  0  0  0  0  0  0
    4.5495   -1.7448    0.8404 C   0  0  0  0  0  0  0  0  0  0  0  0
    6.1870   -3.1244   -1.5503 H   0  0  0  0  0  0  0  0  0  0  0  0
    2.1665   -1.3408   -0.2135 C   0  0  0  0  0  0  0  0  0  0  0  0
    0.5225   -2.6410   -1.5629 N   0  0  0  0  0  0  0  0  0  0  0  0
    1.4682   -1.5072   -1.5681 C   0  0  0  0  0  0  0  0  0  0  0  0
    1.0838   -3.4576   -1.3023 H   0  0  0  0  0  0  0  0  0  0  0  0
    0.2655   -2.8124   -2.5337 H   0  0  0  0  0  0  0  0  0  0  0  0
 13 14  1  0
 14 12  1  0
 12  1  1  0
  1  2  2  0
  2  3  1  0
  3  4  1  0
  4  5  2  0
  5  6  1  0
  6  7  2  0
  7  8  1  0
  8  9  1  0
  8 10  2  0
 10  1  1  0
 10  4  1  0
 13 15  1  0
 13 16  1  0
  3 11  1  0
M  CHG 1   9  -1
M  END
> <input_smiles>
NCCc1c[nH]c2cccc(O)c12

> <prot_variant_index>
3

> <minimizedAffinity>
0.00000

> <CNNscore>
0.6810948253

> <CNNaffinity>
3.2399489880

> <CNN_VS>
2.2067124844

> <CNNaffinity_variance>
0.9483006001

$$$$
Serotonin__p3


 16 17  0  0  0  0  0  0  0  0999 V2000
    3.4653    1.2169   -0.1663 C   0  0  0  0  0  0  0  0  0  0  0  0
    4.0619    1.0273   -1.3983 C   0  0  0  0  0  0  0  0  0  0  0  0
    5.2137    1.7555   -1.4214 N   0  0  0  0  0  0  0  0  0  0  0  0
    5.3973    2.4215   -0.2331 C   0  0  0  0  0  0  0  0  0  0  0  0
    6.4459    3.2664    0.1465 C   0  0  0  0  0  0  0  0  0  0  0  0
    6.3919    3.8212    1.4201 C   0  0  0  0  0  0  0  0  0  0  0  0
    5.3270    3.5358    2.2723 C   0  0  0  0  0  0  0  0  0  0  0  0
    4.2592    2.6879    1.9122 C   0  0  0  0  0  0  0  0  0  0  0  0
    3.2696    2.4021    2.6604 O   0  0  0  0  0  0  0  0  0  0  0  0
    4.3109    2.1143    0.5997 C   0  0  0  0  0  0  0  0  0  0  0  0
    5.8530    1.8070   -2.1982 H   0  0  0  0  0  0  0  0  0  0  0  0
    2.1763    0.5992    0.2829 C   0  0  0  0  0  0  0  0  0  0  0  0
    0.5263   -0.0847   -1.4561 N   0  0  0  0  0  0  0  0  0  0  0  0
    1.6996   -0.5068   -0.6656 C   0  0  0  0  0  0  0  0  0  0  0  0
   -0.1826    0.1785   -0.7647 H   0  0  0  0  0  0  0  0  0  0  0  0
    0.1506   -0.9244   -1.8937 H   0  0  0  0  0  0  0  0  0  0  0  0
 13 14  1  0
 14 12  1  0
 12  1  1  0
  1  2  2  0
  2  3  1  0
  3  4  1  0
  4  5  2  0
  5  6  1  0
  6  7  2  0
  7  8  1  0
  8  9  1  0
  8 10  2  0
 10  1  1  0
 10  4  1  0
 13 15  1  0
 13 16  1  0
  3 11  1  0
M  CHG 1   9  -1
M  END
> <input_smiles>
NCCc1c[nH]c2cccc(O)c12

> <prot_variant_index>
3

> <minimizedAffinity>
0.00000

> <CNNscore>
0.6701242328

> <CNNaffinity>
3.2951400280

> <CNN_VS>
2.2081532478

> <CNNaffinity_variance>
1.1212623119

$$$$
Serotonin__p3


 16 17  0  0  0  0  0  0  0  0999 V2000
   -8.6225   -1.0363    3.0396 C   0  0  0  0  0  0  0  0  0  0  0  0
   -7.4136   -1.5758    3.4363 C   0  0  0  0  0  0  0  0  0  0  0  0
   -6.4221   -0.7571    2.9847 N   0  0  0  0  0  0  0  0  0  0  0  0
   -6.9442    0.3145    2.3002 C   0  0  0  0  0  0  0  0  0  0  0  0
   -6.2707    1.3759    1.6858 C   0  0  0  0  0  0  0  0  0  0  0  0
   -7.0427    2.3424    1.0514 C   0  0  0  0  0  0  0  0  0  0  0  0
   -8.4325    2.2419    1.0376 C   0  0  0  0  0  0  0  0  0  0  0  0
   -9.1334    1.1819    1.6494 C   0  0  0  0  0  0  0  0  0  0  0  0
  -10.4000    1.0540    1.6595 O   0  0  0  0  0  0  0  0  0  0  0  0
   -8.3409    0.1831    2.3042 C   0  0  0  0  0  0  0  0  0  0  0  0
   -5.4360   -0.9059    3.1267 H   0  0  0  0  0  0  0  0  0  0  0  0
   -9.9732   -1.6181    3.3257 C   0  0  0  0  0  0  0  0  0  0  0  0
  -10.0592   -3.8934    2.3108 N   0  0  0  0  0  0  0  0  0  0  0  0
  -10.4882   -2.4874    2.1728 C   0  0  0  0  0  0  0  0  0  0  0  0
   -9.0362   -3.8587    2.3559 H   0  0  0  0  0  0  0  0  0  0  0  0
  -10.2560   -4.3483    1.4208 H   0  0  0  0  0  0  0  0  0  0  0  0
 13 14  1  0
 14 12  1  0
 12  1  1  0
  1  2  2  0
  2  3  1  0
  3  4  1  0
  4  5  2  0
  5  6  1  0
  6  7  2  0
  7  8  1  0
  8  9  1  0
  8 10  2  0
 10  1  1  0
 10  4  1  0
 13 15  1  0
 13 16  1  0
  3 11  1  0
M  CHG 1   9  -1
M  END
> <input_smiles>
NCCc1c[nH]c2cccc(O)c12

> <prot_variant_index>
3

> <minimizedAffinity>
0.00000

> <CNNscore>
0.6674755812

> <CNNaffinity>
3.4382398129

> <CNN_VS>
2.2949411869

> <CNNaffinity_variance>
1.7680888176

$$$$
Serotonin__p3


 16 17  0  0  0  0  0  0  0  0999 V2000
    3.5329    2.1511   -1.1132 C   0  0  0  0  0  0  0  0  0  0  0  0
    2.1976    1.8979   -1.3633 C   0  0  0  0  0  0  0  0  0  0  0  0
    1.9332    2.2771   -2.6453 N   0  0  0  0  0  0  0  0  0  0  0  0
    3.0619    2.7733   -3.2530 C   0  0  0  0  0  0  0  0  0  0  0  0
    3.2146    3.2623   -4.5550 C   0  0  0  0  0  0  0  0  0  0  0  0
    4.4768    3.7114   -4.9261 C   0  0  0  0  0  0  0  0  0  0  0  0
    5.5374    3.6688   -4.0233 C   0  0  0  0  0  0  0  0  0  0  0  0
    5.4079    3.1807   -2.7065 C   0  0  0  0  0  0  0  0  0  0  0  0
    6.3505    3.1248   -1.8527 O   0  0  0  0  0  0  0  0  0  0  0  0
    4.1078    2.7172   -2.3199 C   0  0  0  0  0  0  0  0  0  0  0  0
    1.0361    2.2082   -3.0982 H   0  0  0  0  0  0  0  0  0  0  0  0
    4.2447    1.8832    0.1777 C   0  0  0  0  0  0  0  0  0  0  0  0
    2.9489    1.3239    2.2325 N   0  0  0  0  0  0  0  0  0  0  0  0
    3.5616    0.7857    1.0017 C   0  0  0  0  0  0  0  0  0  0  0  0
    3.7154    1.7801    2.7366 H   0  0  0  0  0  0  0  0  0  0  0  0
    2.7077    0.5229    2.8139 H   0  0  0  0  0  0  0  0  0  0  0  0
 13 14  1  0
 14 12  1  0
 12  1  1  0
  1  2  2  0
  2  3  1  0
  3  4  1  0
  4  5  2  0
  5  6  1  0
  6  7  2  0
  7  8  1  0
  8  9  1  0
  8 10  2  0
 10  1  1  0
 10  4  1  0
 13 15  1  0
 13 16  1  0
  3 11  1  0
M  CHG 1   9  -1
M  END
> <input_smiles>
NCCc1c[nH]c2cccc(O)c12

> <prot_variant_index>
3

> <minimizedAffinity>
0.00000

> <CNNscore>
0.6657681465

> <CNNaffinity>
3.3112776279

> <CNN_VS>
2.2045431137

> <CNNaffinity_variance>
1.3167800903

$$$$
Serotonin__p3


 16 17  0  0  0  0  0  0  0  0999 V2000
   -6.5285    0.8020    2.3047 C   0  0  0  0  0  0  0  0  0  0  0  0
   -5.3730    0.2785    1.7565 C   0  0  0  0  0  0  0  0  0  0  0  0
   -4.6765    1.3044    1.1911 N   0  0  0  0  0  0  0  0  0  0  0  0
   -5.3407    2.4968    1.3535 C   0  0  0  0  0  0  0  0  0  0  0  0
   -4.9662    3.7753    0.9258 C   0  0  0  0  0  0  0  0  0  0  0  0
   -5.8270    4.8264    1.2204 C   0  0  0  0  0  0  0  0  0  0  0  0
   -7.0127    4.5973    1.9156 C   0  0  0  0  0  0  0  0  0  0  0  0
   -7.4113    3.3184    2.3565 C   0  0  0  0  0  0  0  0  0  0  0  0
   -8.4846    3.0675    2.9936 O   0  0  0  0  0  0  0  0  0  0  0  0
   -6.5268    2.2318    2.0542 C   0  0  0  0  0  0  0  0  0  0  0  0
   -3.7930    1.2143    0.7155 H   0  0  0  0  0  0  0  0  0  0  0  0
   -7.5838    0.0202    3.0257 C   0  0  0  0  0  0  0  0  0  0  0  0
   -8.4812   -1.6887    1.4482 N   0  0  0  0  0  0  0  0  0  0  0  0
   -8.7367   -0.3900    2.1023 C   0  0  0  0  0  0  0  0  0  0  0  0
   -7.5952   -1.5677    0.9479 H   0  0  0  0  0  0  0  0  0  0  0  0
   -9.1755   -1.7861    0.7092 H   0  0  0  0  0  0  0  0  0  0  0  0
 13 14  1  0
 14 12  1  0
 12  1  1  0
  1  2  2  0
  2  3  1  0
  3  4  1  0
  4  5  2  0
  5  6  1  0
  6  7  2  0
  7  8  1  0
  8  9  1  0
  8 10  2  0
 10  1  1  0
 10  4  1  0
 13 15  1  0
 13 16  1  0
  3 11  1  0
M  CHG 1   9  -1
M  END
> <input_smiles>
NCCc1c[nH]c2cccc(O)c12

> <prot_variant_index>
3

> <minimizedAffinity>
0.00000

> <CNNscore>
0.6634363532

> <CNNaffinity>
3.4082520008

> <CNN_VS>
2.2611582279

> <CNNaffinity_variance>
1.7335861921

$$$$
Serotonin__p3


 16 17  0  0  0  0  0  0  0  0999 V2000
    2.6052    0.1543   -3.4088 C   0  0  0  0  0  0  0  0  0  0  0  0
    1.3378    0.3122   -3.9366 C   0  0  0  0  0  0  0  0  0  0  0  0
    1.4497    0.3284   -5.2948 N   0  0  0  0  0  0  0  0  0  0  0  0
    2.7607    0.1821   -5.6810 C   0  0  0  0  0  0  0  0  0  0  0  0
    3.2959    0.1448   -6.9732 C   0  0  0  0  0  0  0  0  0  0  0  0
    4.6720   -0.0136   -7.0918 C   0  0  0  0  0  0  0  0  0  0  0  0
    5.4720   -0.1290   -5.9566 C   0  0  0  0  0  0  0  0  0  0  0  0
    4.9557   -0.0940   -4.6447 C   0  0  0  0  0  0  0  0  0  0  0  0
    5.6515   -0.1962   -3.5835 O   0  0  0  0  0  0  0  0  0  0  0  0
    3.5374    0.0696   -4.5183 C   0  0  0  0  0  0  0  0  0  0  0  0
    0.6828    0.4327   -5.9397 H   0  0  0  0  0  0  0  0  0  0  0  0
    2.9401    0.0847   -1.9501 C   0  0  0  0  0  0  0  0  0  0  0  0
    4.3738   -1.8879   -1.4325 N   0  0  0  0  0  0  0  0  0  0  0  0
    2.9958   -1.3579   -1.4343 C   0  0  0  0  0  0  0  0  0  0  0  0
    4.6967   -1.7996   -2.4009 H   0  0  0  0  0  0  0  0  0  0  0  0
    4.3008   -2.8929   -1.2830 H   0  0  0  0  0  0  0  0  0  0  0  0
 13 14  1  0
 14 12  1  0
 12  1  1  0
  1  2  2  0
  2  3  1  0
  3  4  1  0
  4  5  2  0
  5  6  1  0
  6  7  2  0
  7  8  1  0
  8  9  1  0
  8 10  2  0
 10  1  1  0
 10  4  1  0
 13 15  1  0
 13 16  1  0
  3 11  1  0
M  CHG 1   9  -1
M  END
> <input_smiles>
NCCc1c[nH]c2cccc(O)c12

> <prot_variant_index>
3

> <minimizedAffinity>
0.00000

> <CNNscore>
0.6590152979

> <CNNaffinity>
3.2257344723

> <CNN_VS>
2.1258084774

> <CNNaffinity_variance>
0.8718271255

$$$$
Psilocin__p0


 17 18  0  0  0  0  0  0  0  0999 V2000
    6.4001    3.2037   -3.6327 C   0  0  0  0  0  0  0  0  0  0  0  0
    5.7378    2.3002   -4.4425 C   0  0  0  0  0  0  0  0  0  0  0  0
    5.4427    2.9185   -5.6259 N   0  0  0  0  0  0  0  0  0  0  0  0
    5.8957    4.2165   -5.6126 C   0  0  0  0  0  0  0  0  0  0  0  0
    5.8129    5.2075   -6.5990 C   0  0  0  0  0  0  0  0  0  0  0  0
    6.3681    6.4582   -6.3134 C   0  0  0  0  0  0  0  0  0  0  0  0
    6.9826    6.7092   -5.0883 C   0  0  0  0  0  0  0  0  0  0  0  0
    7.0548    5.7049   -4.1166 C   0  0  0  0  0  0  0  0  0  0  0  0
    7.6595    5.9638   -2.9119 O   0  0  0  0  0  0  0  0  0  0  0  0
    6.5044    4.4297   -4.3730 C   0  0  0  0  0  0  0  0  0  0  0  0
    4.9623    2.4881   -6.4033 H   0  0  0  0  0  0  0  0  0  0  0  0
    7.9951    6.8736   -2.9200 H   0  0  0  0  0  0  0  0  0  0  0  0
    6.9091    2.9368   -2.2455 C   0  0  0  0  0  0  0  0  0  0  0  0
    6.4234    1.5820   -1.6995 C   0  0  0  0  0  0  0  0  0  0  0  0
    6.2024    1.0334    0.6663 C   0  0  0  0  0  0  0  0  0  0  0  0
    5.5824    1.6886   -0.4863 N   0  0  0  0  0  0  0  0  0  0  0  0
    4.2672    1.0963   -0.7433 C   0  0  0  0  0  0  0  0  0  0  0  0
 15 16  1  0
 16 17  1  0
 16 14  1  0
 14 13  1  0
 13  1  1  0
  1  2  2  0
  2  3  1  0
  3  4  1  0
  4  5  2  0
  5  6  1  0
  6  7  2  0
  7  8  1  0
  8  9  1  0
  8 10  2  0
 10  1  1  0
 10  4  1  0
  3 11  1  0
  9 12  1  0
M  END
> <input_smiles>
CN(C)CCc1c[nH]c2cccc(O)c12

> <prot_variant_index>
0

> <minimizedAffinity>
0.00000

> <CNNscore>
0.8169066906

> <CNNaffinity>
3.6388289928

> <CNN_VS>
2.9725837708

> <CNNaffinity_variance>
0.6043233275

$$$$
Psilocin__p0


 17 18  0  0  0  0  0  0  0  0999 V2000
    6.9810    2.3653   -2.1461 C   0  0  0  0  0  0  0  0  0  0  0  0
    7.3420    3.6520   -2.4991 C   0  0  0  0  0  0  0  0  0  0  0  0
    7.2410    4.4469   -1.3911 N   0  0  0  0  0  0  0  0  0  0  0  0
    6.8168    3.7092   -0.3112 C   0  0  0  0  0  0  0  0  0  0  0  0
    6.5771    4.1067    1.0104 C   0  0  0  0  0  0  0  0  0  0  0  0
    6.1463    3.1322    1.9152 C   0  0  0  0  0  0  0  0  0  0  0  0
    5.9617    1.8105    1.5146 C   0  0  0  0  0  0  0  0  0  0  0  0
    6.2072    1.4345    0.1893 C   0  0  0  0  0  0  0  0  0  0  0  0
    6.0191    0.1305   -0.1956 O   0  0  0  0  0  0  0  0  0  0  0  0
    6.6440    2.3941   -0.7505 C   0  0  0  0  0  0  0  0  0  0  0  0
    7.4487    5.4351   -1.3630 H   0  0  0  0  0  0  0  0  0  0  0  0
    5.7415   -0.3862    0.5767 H   0  0  0  0  0  0  0  0  0  0  0  0
    6.9537    1.1745   -3.0603 C   0  0  0  0  0  0  0  0  0  0  0  0
    8.2806    0.3944   -3.0373 C   0  0  0  0  0  0  0  0  0  0  0  0
   10.1512    1.5859   -4.0509 C   0  0  0  0  0  0  0  0  0  0  0  0
    9.1082    0.5787   -4.2503 N   0  0  0  0  0  0  0  0  0  0  0  0
    8.2550    0.9667   -5.3763 C   0  0  0  0  0  0  0  0  0  0  0  0
 15 16  1  0
 16 17  1  0
 16 14  1  0
 14 13  1  0
 13  1  1  0
  1  2  2  0
  2  3  1  0
  3  4  1  0
  4  5  2  0
  5  6  1  0
  6  7  2  0
  7  8  1  0
  8  9  1  0
  8 10  2  0
 10  1  1  0
 10  4  1  0
  3 11  1  0
  9 12  1  0
M  END
> <input_smiles>
CN(C)CCc1c[nH]c2cccc(O)c12

> <prot_variant_index>
0

> <minimizedAffinity>
0.00000

> <CNNscore>
0.8088620305

> <CNNaffinity>
3.8623740673

> <CNN_VS>
3.1241276264

> <CNNaffinity_variance>
1.1043092012

$$$$
Psilocin__p0


 17 18  0  0  0  0  0  0  0  0999 V2000
   -3.4662    0.7074   -0.4594 C   0  0  0  0  0  0  0  0  0  0  0  0
   -2.8935    0.7186    0.7986 C   0  0  0  0  0  0  0  0  0  0  0  0
   -3.7508    1.3502    1.6564 N   0  0  0  0  0  0  0  0  0  0  0  0
   -4.8801    1.7597    0.9875 C   0  0  0  0  0  0  0  0  0  0  0  0
   -6.0095    2.4386    1.4625 C   0  0  0  0  0  0  0  0  0  0  0  0
   -7.0251    2.7318    0.5480 C   0  0  0  0  0  0  0  0  0  0  0  0
   -6.9162    2.3610   -0.7907 C   0  0  0  0  0  0  0  0  0  0  0  0
   -5.7794    1.6831   -1.2445 C   0  0  0  0  0  0  0  0  0  0  0  0
   -5.6808    1.3252   -2.5659 O   0  0  0  0  0  0  0  0  0  0  0  0
   -4.7348    1.3707   -0.3466 C   0  0  0  0  0  0  0  0  0  0  0  0
   -3.5848    1.4965    2.6420 H   0  0  0  0  0  0  0  0  0  0  0  0
   -6.4905    1.5982   -3.0246 H   0  0  0  0  0  0  0  0  0  0  0  0
   -2.8636    0.1091   -1.6977 C   0  0  0  0  0  0  0  0  0  0  0  0
   -2.1100    1.1542   -2.5400 C   0  0  0  0  0  0  0  0  0  0  0  0
    0.0142    2.2468   -3.0301 C   0  0  0  0  0  0  0  0  0  0  0  0
   -0.7249    1.4088   -2.0849 N   0  0  0  0  0  0  0  0  0  0  0  0
   -0.0238    0.1357   -1.8998 C   0  0  0  0  0  0  0  0  0  0  0  0
 15 16  1  0
 16 17  1  0
 16 14  1  0
 14 13  1  0
 13  1  1  0
  1  2  2  0
  2  3  1  0
  3  4  1  0
  4  5  2  0
  5  6  1  0
  6  7  2  0
  7  8  1  0
  8  9  1  0
  8 10  2  0
 10  1  1  0
 10  4  1  0
  3 11  1  0
  9 12  1  0
M  END
> <input_smiles>
CN(C)CCc1c[nH]c2cccc(O)c12

> <prot_variant_index>
0

> <minimizedAffinity>
0.00000

> <CNNscore>
0.8038648963

> <CNNaffinity>
3.6383140087

> <CNN_VS>
2.9247128963

> <CNNaffinity_variance>
0.7956569195

$$$$
Psilocin__p0


 17 18  0  0  0  0  0  0  0  0999 V2000
   -2.9490    0.8440   -3.0844 C   0  0  0  0  0  0  0  0  0  0  0  0
   -2.5352    0.6900   -1.7746 C   0  0  0  0  0  0  0  0  0  0  0  0
   -3.4173   -0.1391   -1.1389 N   0  0  0  0  0  0  0  0  0  0  0  0
   -4.4096   -0.5347   -2.0045 C   0  0  0  0  0  0  0  0  0  0  0  0
   -5.5105   -1.3729   -1.7870 C   0  0  0  0  0  0  0  0  0  0  0  0
   -6.3721   -1.6080   -2.8623 C   0  0  0  0  0  0  0  0  0  0  0  0
   -6.1425   -1.0272   -4.1079 C   0  0  0  0  0  0  0  0  0  0  0  0
   -5.0364   -0.1929   -4.3038 C   0  0  0  0  0  0  0  0  0  0  0  0
   -4.8212    0.3767   -5.5340 O   0  0  0  0  0  0  0  0  0  0  0  0
   -4.1456    0.0651   -3.2386 C   0  0  0  0  0  0  0  0  0  0  0  0
   -3.3536   -0.4254   -0.1722 H   0  0  0  0  0  0  0  0  0  0  0  0
   -5.5128    0.0749   -6.1432 H   0  0  0  0  0  0  0  0  0  0  0  0
   -2.2646    1.6708   -4.1344 C   0  0  0  0  0  0  0  0  0  0  0  0
   -1.2521    0.8487   -4.9521 C   0  0  0  0  0  0  0  0  0  0  0  0
   -1.6934   -1.3362   -5.9411 C   0  0  0  0  0  0  0  0  0  0  0  0
   -1.8519    0.1116   -6.0867 N   0  0  0  0  0  0  0  0  0  0  0  0
   -1.2382    0.5523   -7.3419 C   0  0  0  0  0  0  0  0  0  0  0  0
 15 16  1  0
 16 17  1  0
 16 14  1  0
 14 13  1  0
 13  1  1  0
  1  2  2  0
  2  3  1  0
  3  4  1  0
  4  5  2  0
  5  6  1  0
  6  7  2  0
  7  8  1  0
  8  9  1  0
  8 10  2  0
 10  1  1  0
 10  4  1  0
  3 11  1  0
  9 12  1  0
M  END
> <input_smiles>
CN(C)CCc1c[nH]c2cccc(O)c12

> <prot_variant_index>
0

> <minimizedAffinity>
0.00000

> <CNNscore>
0.8003145456

> <CNNaffinity>
3.7773475647

> <CNN_VS>
3.0230662823

> <CNNaffinity_variance>
1.4501053095

$$$$
Psilocin__p0


 17 18  0  0  0  0  0  0  0  0999 V2000
    3.0210    4.0077   -0.1982 C   0  0  0  0  0  0  0  0  0  0  0  0
    1.8264    3.5977   -0.7600 C   0  0  0  0  0  0  0  0  0  0  0  0
    1.4391    4.5336   -1.6786 N   0  0  0  0  0  0  0  0  0  0  0  0
    2.3551    5.5575   -1.7327 C   0  0  0  0  0  0  0  0  0  0  0  0
    2.3639    6.7148   -2.5217 C   0  0  0  0  0  0  0  0  0  0  0  0
    3.4367    7.5979   -2.3698 C   0  0  0  0  0  0  0  0  0  0  0  0
    4.4618    7.3348   -1.4636 C   0  0  0  0  0  0  0  0  0  0  0  0
    4.4338    6.1724   -0.6851 C   0  0  0  0  0  0  0  0  0  0  0  0
    5.4472    5.9243    0.2068 O   0  0  0  0  0  0  0  0  0  0  0  0
    3.3647    5.2585   -0.8142 C   0  0  0  0  0  0  0  0  0  0  0  0
    0.6016    4.4847   -2.2414 H   0  0  0  0  0  0  0  0  0  0  0  0
    6.0990    6.6397    0.1458 H   0  0  0  0  0  0  0  0  0  0  0  0
    3.7994    3.2718    0.8540 C   0  0  0  0  0  0  0  0  0  0  0  0
    3.5481    1.7538    0.8068 C   0  0  0  0  0  0  0  0  0  0  0  0
    5.4817    0.6130    1.7589 C   0  0  0  0  0  0  0  0  0  0  0  0
    4.0910    1.0175    1.9702 N   0  0  0  0  0  0  0  0  0  0  0  0
    3.2671   -0.1647    2.2350 C   0  0  0  0  0  0  0  0  0  0  0  0
 15 16  1  0
 16 17  1  0
 16 14  1  0
 14 13  1  0
 13  1  1  0
  1  2  2  0
  2  3  1  0
  3  4  1  0
  4  5  2  0
  5  6  1  0
  6  7  2  0
  7  8  1  0
  8  9  1  0
  8 10  2  0
 10  1  1  0
 10  4  1  0
  3 11  1  0
  9 12  1  0
M  END
> <input_smiles>
CN(C)CCc1c[nH]c2cccc(O)c12

> <prot_variant_index>
0

> <minimizedAffinity>
0.00000

> <CNNscore>
0.7756257653

> <CNNaffinity>
3.6342647076

> <CNN_VS>
2.8188292980

> <CNNaffinity_variance>
0.9385465980

$$$$
Psilocin__p0


 17 18  0  0  0  0  0  0  0  0999 V2000
    5.3744    3.8313   -3.8483 C   0  0  0  0  0  0  0  0  0  0  0  0
    5.2142    5.1874   -4.0628 C   0  0  0  0  0  0  0  0  0  0  0  0
    4.6996    5.7454   -2.9254 N   0  0  0  0  0  0  0  0  0  0  0  0
    4.5138    4.7817   -1.9625 C   0  0  0  0  0  0  0  0  0  0  0  0
    4.0144    4.8981   -0.6591 C   0  0  0  0  0  0  0  0  0  0  0  0
    3.9345    3.7360    0.1135 C   0  0  0  0  0  0  0  0  0  0  0  0
    4.3380    2.5040   -0.3971 C   0  0  0  0  0  0  0  0  0  0  0  0
    4.8343    2.4098   -1.7020 C   0  0  0  0  0  0  0  0  0  0  0  0
    5.2262    1.1907   -2.1963 O   0  0  0  0  0  0  0  0  0  0  0  0
    4.9290    3.5648   -2.5094 C   0  0  0  0  0  0  0  0  0  0  0  0
    4.4860    6.7251   -2.8032 H   0  0  0  0  0  0  0  0  0  0  0  0
    5.1124    0.5217   -1.5036 H   0  0  0  0  0  0  0  0  0  0  0  0
    5.9150    2.8396   -4.8376 C   0  0  0  0  0  0  0  0  0  0  0  0
    7.4272    2.6105   -4.6630 C   0  0  0  0  0  0  0  0  0  0  0  0
    9.1651    2.9042   -6.3482 C   0  0  0  0  0  0  0  0  0  0  0  0
    8.2714    3.5750   -5.4029 N   0  0  0  0  0  0  0  0  0  0  0  0
    9.0588    4.3697   -4.4569 C   0  0  0  0  0  0  0  0  0  0  0  0
 15 16  1  0
 16 17  1  0
 16 14  1  0
 14 13  1  0
 13  1  1  0
  1  2  2  0
  2  3  1  0
  3  4  1  0
  4  5  2  0
  5  6  1  0
  6  7  2  0
  7  8  1  0
  8  9  1  0
  8 10  2  0
 10  1  1  0
 10  4  1  0
  3 11  1  0
  9 12  1  0
M  END
> <input_smiles>
CN(C)CCc1c[nH]c2cccc(O)c12

> <prot_variant_index>
0

> <minimizedAffinity>
0.00000

> <CNNscore>
0.7743594050

> <CNNaffinity>
3.6107776165

> <CNN_VS>
2.7960395813

> <CNNaffinity_variance>
0.8229936957

$$$$
Psilocin__p0


 17 18  0  0  0  0  0  0  0  0999 V2000
    3.9129    4.2217    3.2410 C   0  0  0  0  0  0  0  0  0  0  0  0
    2.8833    3.3427    3.5203 C   0  0  0  0  0  0  0  0  0  0  0  0
    1.7134    3.8953    3.0778 N   0  0  0  0  0  0  0  0  0  0  0  0
    1.9503    5.1262    2.5128 C   0  0  0  0  0  0  0  0  0  0  0  0
    1.0563    6.0378    1.9369 C   0  0  0  0  0  0  0  0  0  0  0  0
    1.5794    7.2312    1.4309 C   0  0  0  0  0  0  0  0  0  0  0  0
    2.9442    7.5036    1.4981 C   0  0  0  0  0  0  0  0  0  0  0  0
    3.8202    6.5790    2.0775 C   0  0  0  0  0  0  0  0  0  0  0  0
    5.1625    6.8586    2.1415 O   0  0  0  0  0  0  0  0  0  0  0  0
    3.3247    5.3630    2.5978 C   0  0  0  0  0  0  0  0  0  0  0  0
    0.8024    3.4651    3.1511 H   0  0  0  0  0  0  0  0  0  0  0  0
    5.3229    7.7178    1.7213 H   0  0  0  0  0  0  0  0  0  0  0  0
    5.3654    4.0073    3.5552 C   0  0  0  0  0  0  0  0  0  0  0  0
    6.1303    3.3879    2.3716 C   0  0  0  0  0  0  0  0  0  0  0  0
    6.4188    1.5308    3.9256 C   0  0  0  0  0  0  0  0  0  0  0  0
    6.9369    2.2003    2.7316 N   0  0  0  0  0  0  0  0  0  0  0  0
    8.3297    2.5975    2.9527 C   0  0  0  0  0  0  0  0  0  0  0  0
 15 16  1  0
 16 17  1  0
 16 14  1  0
 14 13  1  0
 13  1  1  0
  1  2  2  0
  2  3  1  0
  3  4  1  0
  4  5  2  0
  5  6  1  0
  6  7  2  0
  7  8  1  0
  8  9  1  0
  8 10  2  0
 10  1  1  0
 10  4  1  0
  3 11  1  0
  9 12  1  0
M  END
> <input_smiles>
CN(C)CCc1c[nH]c2cccc(O)c12

> <prot_variant_index>
0

> <minimizedAffinity>
0.00000

> <CNNscore>
0.7741624713

> <CNNaffinity>
3.6018888950

> <CNN_VS>
2.7884471416

> <CNNaffinity_variance>
0.3481397331

$$$$
Psilocin__p0


 17 18  0  0  0  0  0  0  0  0999 V2000
   -2.9477    0.9602   -1.7381 C   0  0  0  0  0  0  0  0  0  0  0  0
   -2.6875    1.2471   -0.4112 C   0  0  0  0  0  0  0  0  0  0  0  0
   -3.8380    1.0593    0.3036 N   0  0  0  0  0  0  0  0  0  0  0  0
   -4.8561    0.6556   -0.5276 C   0  0  0  0  0  0  0  0  0  0  0  0
   -6.1910    0.3518   -0.2315 C   0  0  0  0  0  0  0  0  0  0  0  0
   -7.0190   -0.0397   -1.2875 C   0  0  0  0  0  0  0  0  0  0  0  0
   -6.5317   -0.1241   -2.5901 C   0  0  0  0  0  0  0  0  0  0  0  0
   -5.1945    0.1837   -2.8641 C   0  0  0  0  0  0  0  0  0  0  0  0
   -4.7254    0.1003   -4.1514 O   0  0  0  0  0  0  0  0  0  0  0  0
   -4.3305    0.5820   -1.8201 C   0  0  0  0  0  0  0  0  0  0  0  0
   -3.9324    1.1944    1.3002 H   0  0  0  0  0  0  0  0  0  0  0  0
   -5.4438   -0.2061   -4.7263 H   0  0  0  0  0  0  0  0  0  0  0  0
   -1.9598    1.0332   -2.8665 C   0  0  0  0  0  0  0  0  0  0  0  0
   -0.9634   -0.1399   -2.8426 C   0  0  0  0  0  0  0  0  0  0  0  0
   -0.7523   -2.3715   -1.8825 C   0  0  0  0  0  0  0  0  0  0  0  0
   -1.5976   -1.4647   -2.6605 N   0  0  0  0  0  0  0  0  0  0  0  0
   -1.8863   -2.0582   -3.9686 C   0  0  0  0  0  0  0  0  0  0  0  0
 15 16  1  0
 16 17  1  0
 16 14  1  0
 14 13  1  0
 13  1  1  0
  1  2  2  0
  2  3  1  0
  3  4  1  0
  4  5  2  0
  5  6  1  0
  6  7  2  0
  7  8  1  0
  8  9  1  0
  8 10  2  0
 10  1  1  0
 10  4  1  0
  3 11  1  0
  9 12  1  0
M  END
> <input_smiles>
CN(C)CCc1c[nH]c2cccc(O)c12

> <prot_variant_index>
0

> <minimizedAffinity>
0.00000

> <CNNscore>
0.7693474293

> <CNNaffinity>
3.4293935299

> <CNN_VS>
2.6383950710

> <CNNaffinity_variance>
1.0877225399

$$$$
Psilocin__p0


 17 18  0  0  0  0  0  0  0  0999 V2000
    5.3744    3.8313    3.9642 C   0  0  0  0  0  0  0  0  0  0  0  0
    5.0274    4.8251    3.0683 C   0  0  0  0  0  0  0  0  0  0  0  0
    4.8218    5.9822    3.7672 N   0  0  0  0  0  0  0  0  0  0  0  0
    5.0241    5.7711    5.1106 C   0  0  0  0  0  0  0  0  0  0  0  0
    4.9249    6.6637    6.1856 C   0  0  0  0  0  0  0  0  0  0  0  0
    5.1906    6.1716    7.4667 C   0  0  0  0  0  0  0  0  0  0  0  0
    5.5417    4.8381    7.6662 C   0  0  0  0  0  0  0  0  0  0  0  0
    5.6354    3.9631    6.5783 C   0  0  0  0  0  0  0  0  0  0  0  0
    5.9790    2.6506    6.7863 O   0  0  0  0  0  0  0  0  0  0  0  0
    5.3741    4.4279    5.2704 C   0  0  0  0  0  0  0  0  0  0  0  0
    4.5603    6.8691    3.3603 H   0  0  0  0  0  0  0  0  0  0  0  0
    6.1411    2.5165    7.7329 H   0  0  0  0  0  0  0  0  0  0  0  0
    5.6906    2.4044    3.6199 C   0  0  0  0  0  0  0  0  0  0  0  0
    5.3029    2.0570    2.1712 C   0  0  0  0  0  0  0  0  0  0  0  0
    5.0383   -0.2338    1.3784 C   0  0  0  0  0  0  0  0  0  0  0  0
    4.3949    0.8942    2.0536 N   0  0  0  0  0  0  0  0  0  0  0  0
    3.1860    1.2833    1.3231 C   0  0  0  0  0  0  0  0  0  0  0  0
 15 16  1  0
 16 17  1  0
 16 14  1  0
 14 13  1  0
 13  1  1  0
  1  2  2  0
  2  3  1  0
  3  4  1  0
  4  5  2  0
  5  6  1  0
  6  7  2  0
  7  8  1  0
  8  9  1  0
  8 10  2  0
 10  1  1  0
 10  4  1  0
  3 11  1  0
  9 12  1  0
M  END
> <input_smiles>
CN(C)CCc1c[nH]c2cccc(O)c12

> <prot_variant_index>
0

> <minimizedAffinity>
0.00000

> <CNNscore>
0.7666704059

> <CNNaffinity>
3.5569756031

> <CNN_VS>
2.7270278931

> <CNNaffinity_variance>
0.4977456331

$$$$
Psilocin__p0


 17 18  0  0  0  0  0  0  0  0999 V2000
   -4.6977    0.0035   -2.8242 C   0  0  0  0  0  0  0  0  0  0  0  0
   -4.7001    0.1337   -1.4481 C   0  0  0  0  0  0  0  0  0  0  0  0
   -5.9972    0.2370   -1.0277 N   0  0  0  0  0  0  0  0  0  0  0  0
   -6.8534    0.1802   -2.1019 C   0  0  0  0  0  0  0  0  0  0  0  0
   -8.2520    0.2466   -2.1409 C   0  0  0  0  0  0  0  0  0  0  0  0
   -8.8731    0.1605   -3.3902 C   0  0  0  0  0  0  0  0  0  0  0  0
   -8.1249    0.0138   -4.5565 C   0  0  0  0  0  0  0  0  0  0  0  0
   -6.7285   -0.0507   -4.4951 C   0  0  0  0  0  0  0  0  0  0  0  0
   -6.0009   -0.1920   -5.6504 O   0  0  0  0  0  0  0  0  0  0  0  0
   -6.0692    0.0326   -3.2488 C   0  0  0  0  0  0  0  0  0  0  0  0
   -6.2909    0.3390   -0.0665 H   0  0  0  0  0  0  0  0  0  0  0  0
   -6.6134   -0.2534   -6.3997 H   0  0  0  0  0  0  0  0  0  0  0  0
   -3.4827   -0.1418   -3.6943 C   0  0  0  0  0  0  0  0  0  0  0  0
   -3.1145   -1.6168   -3.9358 C   0  0  0  0  0  0  0  0  0  0  0  0
   -4.6817   -3.3615   -4.6044 C   0  0  0  0  0  0  0  0  0  0  0  0
   -3.8499   -2.2451   -5.0560 N   0  0  0  0  0  0  0  0  0  0  0  0
   -2.9008   -2.7139   -6.0689 C   0  0  0  0  0  0  0  0  0  0  0  0
 15 16  1  0
 16 17  1  0
 16 14  1  0
 14 13  1  0
 13  1  1  0
  1  2  2  0
  2  3  1  0
  3  4  1  0
  4  5  2  0
  5  6  1  0
  6  7  2  0
  7  8  1  0
  8  9  1  0
  8 10  2  0
 10  1  1  0
 10  4  1  0
  3 11  1  0
  9 12  1  0
M  END
> <input_smiles>
CN(C)CCc1c[nH]c2cccc(O)c12

> <prot_variant_index>
0

> <minimizedAffinity>
0.00000

> <CNNscore>
0.7640517354

> <CNNaffinity>
3.5710394382

> <CNN_VS>
2.7284588814

> <CNNaffinity_variance>
0.9283081889

$$$$
Psilocin__p0


 17 18  0  0  0  0  0  0  0  0999 V2000
    5.7639    4.6726   -2.1899 C   0  0  0  0  0  0  0  0  0  0  0  0
    6.4048    3.5141   -1.7928 C   0  0  0  0  0  0  0  0  0  0  0  0
    5.5011    2.7254   -1.1362 N   0  0  0  0  0  0  0  0  0  0  0  0
    4.2736    3.3429   -1.0895 C   0  0  0  0  0  0  0  0  0  0  0  0
    3.0694    2.9073   -0.5218 C   0  0  0  0  0  0  0  0  0  0  0  0
    1.9593    3.7505   -0.6237 C   0  0  0  0  0  0  0  0  0  0  0  0
    2.0490    4.9826   -1.2680 C   0  0  0  0  0  0  0  0  0  0  0  0
    3.2617    5.3987   -1.8286 C   0  0  0  0  0  0  0  0  0  0  0  0
    3.3399    6.6157   -2.4584 O   0  0  0  0  0  0  0  0  0  0  0  0
    4.4027    4.5706   -1.7441 C   0  0  0  0  0  0  0  0  0  0  0  0
    5.7002    1.8172   -0.7413 H   0  0  0  0  0  0  0  0  0  0  0  0
    2.4651    7.0338   -2.4399 H   0  0  0  0  0  0  0  0  0  0  0  0
    6.3870    5.8109   -2.9453 C   0  0  0  0  0  0  0  0  0  0  0  0
    7.3029    6.6677   -2.0527 C   0  0  0  0  0  0  0  0  0  0  0  0
    6.0117    8.3281   -0.8188 C   0  0  0  0  0  0  0  0  0  0  0  0
    6.7006    7.0385   -0.7527 N   0  0  0  0  0  0  0  0  0  0  0  0
    7.7407    7.0859    0.2781 C   0  0  0  0  0  0  0  0  0  0  0  0
 15 16  1  0
 16 17  1  0
 16 14  1  0
 14 13  1  0
 13  1  1  0
  1  2  2  0
  2  3  1  0
  3  4  1  0
  4  5  2  0
  5  6  1  0
  6  7  2  0
  7  8  1  0
  8  9  1  0
  8 10  2  0
 10  1  1  0
 10  4  1  0
  3 11  1  0
  9 12  1  0
M  END
> <input_smiles>
CN(C)CCc1c[nH]c2cccc(O)c12

> <prot_variant_index>
0

> <minimizedAffinity>
0.00000

> <CNNscore>
0.7622424960

> <CNNaffinity>
3.4606392384

> <CNN_VS>
2.6378462315

> <CNNaffinity_variance>
0.9184460044

$$$$
Psilocin__p0


 17 18  0  0  0  0  0  0  0  0999 V2000
   -3.4662    0.7074   -0.4594 C   0  0  0  0  0  0  0  0  0  0  0  0
   -2.8935    0.7186    0.7986 C   0  0  0  0  0  0  0  0  0  0  0  0
   -3.7508    1.3502    1.6564 N   0  0  0  0  0  0  0  0  0  0  0  0
   -4.8801    1.7597    0.9875 C   0  0  0  0  0  0  0  0  0  0  0  0
   -6.0095    2.4386    1.4625 C   0  0  0  0  0  0  0  0  0  0  0  0
   -7.0251    2.7318    0.5480 C   0  0  0  0  0  0  0  0  0  0  0  0
   -6.9162    2.3610   -0.7907 C   0  0  0  0  0  0  0  0  0  0  0  0
   -5.7794    1.6831   -1.2445 C   0  0  0  0  0  0  0  0  0  0  0  0
   -5.6808    1.3252   -2.5659 O   0  0  0  0  0  0  0  0  0  0  0  0
   -4.7348    1.3707   -0.3466 C   0  0  0  0  0  0  0  0  0  0  0  0
   -3.5848    1.4965    2.6420 H   0  0  0  0  0  0  0  0  0  0  0  0
   -6.4905    1.5982   -3.0246 H   0  0  0  0  0  0  0  0  0  0  0  0
   -2.8636    0.1091   -1.6977 C   0  0  0  0  0  0  0  0  0  0  0  0
   -1.6666   -0.8044   -1.3778 C   0  0  0  0  0  0  0  0  0  0  0  0
   -1.8941   -2.8344   -0.0458 C   0  0  0  0  0  0  0  0  0  0  0  0
   -1.9928   -2.2480   -1.3832 N   0  0  0  0  0  0  0  0  0  0  0  0
   -1.0944   -2.9542   -2.3002 C   0  0  0  0  0  0  0  0  0  0  0  0
 15 16  1  0
 16 17  1  0
 16 14  1  0
 14 13  1  0
 13  1  1  0
  1  2  2  0
  2  3  1  0
  3  4  1  0
  4  5  2  0
  5  6  1  0
  6  7  2  0
  7  8  1  0
  8  9  1  0
  8 10  2  0
 10  1  1  0
 10  4  1  0
  3 11  1  0
  9 12  1  0
M  END
> <input_smiles>
CN(C)CCc1c[nH]c2cccc(O)c12

> <prot_variant_index>
0

> <minimizedAffinity>
0.00000

> <CNNscore>
0.7600638866

> <CNNaffinity>
3.5885579586

> <CNN_VS>
2.7275333405

> <CNNaffinity_variance>
0.6113033891

$$$$
Psilocin__p0


 17 18  0  0  0  0  0  0  0  0999 V2000
    5.5264   -2.0720   -1.2530 C   0  0  0  0  0  0  0  0  0  0  0  0
    5.8502   -1.0896   -0.3360 C   0  0  0  0  0  0  0  0  0  0  0  0
    6.5006   -1.6774    0.7133 N   0  0  0  0  0  0  0  0  0  0  0  0
    6.6107   -3.0325    0.5083 C   0  0  0  0  0  0  0  0  0  0  0  0
    7.1952   -4.0186    1.3132 C   0  0  0  0  0  0  0  0  0  0  0  0
    7.1652   -5.3377    0.8515 C   0  0  0  0  0  0  0  0  0  0  0  0
    6.5732   -5.6592   -0.3681 C   0  0  0  0  0  0  0  0  0  0  0  0
    5.9950   -4.6586   -1.1570 C   0  0  0  0  0  0  0  0  0  0  0  0
    5.4117   -4.9866   -2.3554 O   0  0  0  0  0  0  0  0  0  0  0  0
    6.0087   -3.3154   -0.7204 C   0  0  0  0  0  0  0  0  0  0  0  0
    6.8538   -1.1909    1.5252 H   0  0  0  0  0  0  0  0  0  0  0  0
    5.5135   -5.9399   -2.5017 H   0  0  0  0  0  0  0  0  0  0  0  0
    4.8085   -1.8616   -2.5547 C   0  0  0  0  0  0  0  0  0  0  0  0
    5.7829   -1.6746   -3.7317 C   0  0  0  0  0  0  0  0  0  0  0  0
    5.8948    0.2193   -5.2638 C   0  0  0  0  0  0  0  0  0  0  0  0
    6.2285   -0.2770   -3.9279 N   0  0  0  0  0  0  0  0  0  0  0  0
    7.6749   -0.1849   -3.7133 C   0  0  0  0  0  0  0  0  0  0  0  0
 15 16  1  0
 16 17  1  0
 16 14  1  0
 14 13  1  0
 13  1  1  0
  1  2  2  0
  2  3  1  0
  3  4  1  0
  4  5  2  0
  5  6  1  0
  6  7  2  0
  7  8  1  0
  8  9  1  0
  8 10  2  0
 10  1  1  0
 10  4  1  0
  3 11  1  0
  9 12  1  0
M  END
> <input_smiles>
CN(C)CCc1c[nH]c2cccc(O)c12

> <prot_variant_index>
0

> <minimizedAffinity>
0.00000

> <CNNscore>
0.7600001693

> <CNNaffinity>
3.4026153088

> <CNN_VS>
2.5859882832

> <CNNaffinity_variance>
0.5589350462

$$$$
Psilocin__p0


 17 18  0  0  0  0  0  0  0  0999 V2000
    3.9129    4.2217   -4.5716 C   0  0  0  0  0  0  0  0  0  0  0  0
    3.2394    3.0594   -4.8978 C   0  0  0  0  0  0  0  0  0  0  0  0
    2.1020    3.3972   -5.5775 N   0  0  0  0  0  0  0  0  0  0  0  0
    2.0094    4.7630   -5.7046 C   0  0  0  0  0  0  0  0  0  0  0  0
    1.0223    5.5435   -6.3199 C   0  0  0  0  0  0  0  0  0  0  0  0
    1.1849    6.9317   -6.3015 C   0  0  0  0  0  0  0  0  0  0  0  0
    2.2917    7.5179   -5.6910 C   0  0  0  0  0  0  0  0  0  0  0  0
    3.2665    6.7198   -5.0822 C   0  0  0  0  0  0  0  0  0  0  0  0
    4.3513    7.3076   -4.4809 O   0  0  0  0  0  0  0  0  0  0  0  0
    3.1333    5.3136   -5.0834 C   0  0  0  0  0  0  0  0  0  0  0  0
    1.4237    2.7415   -5.9387 H   0  0  0  0  0  0  0  0  0  0  0  0
    4.2887    8.2687   -4.5947 H   0  0  0  0  0  0  0  0  0  0  0  0
    5.2129    4.3080   -3.8254 C   0  0  0  0  0  0  0  0  0  0  0  0
    6.3976    4.6214   -4.7570 C   0  0  0  0  0  0  0  0  0  0  0  0
    7.1623    2.9467   -6.3561 C   0  0  0  0  0  0  0  0  0  0  0  0
    6.2521    4.0688   -6.1222 N   0  0  0  0  0  0  0  0  0  0  0  0
    6.5009    5.1214   -7.1105 C   0  0  0  0  0  0  0  0  0  0  0  0
 15 16  1  0
 16 17  1  0
 16 14  1  0
 14 13  1  0
 13  1  1  0
  1  2  2  0
  2  3  1  0
  3  4  1  0
  4  5  2  0
  5  6  1  0
  6  7  2  0
  7  8  1  0
  8  9  1  0
  8 10  2  0
 10  1  1  0
 10  4  1  0
  3 11  1  0
  9 12  1  0
M  END
> <input_smiles>
CN(C)CCc1c[nH]c2cccc(O)c12

> <prot_variant_index>
0

> <minimizedAffinity>
0.00000

> <CNNscore>
0.7557614446

> <CNNaffinity>
3.3990147114

> <CNN_VS>
2.5688443184

> <CNNaffinity_variance>
1.0410577059

$$$$
Psilocin__p0


 17 18  0  0  0  0  0  0  0  0999 V2000
   -4.5274    0.9991    0.8741 C   0  0  0  0  0  0  0  0  0  0  0  0
   -3.9291    1.1353    2.1128 C   0  0  0  0  0  0  0  0  0  0  0  0
   -4.7304    1.9210    2.8940 N   0  0  0  0  0  0  0  0  0  0  0  0
   -5.8477    2.3095    2.1932 C   0  0  0  0  0  0  0  0  0  0  0  0
   -6.9257    3.1098    2.5924 C   0  0  0  0  0  0  0  0  0  0  0  0
   -7.9414    3.3452    1.6613 C   0  0  0  0  0  0  0  0  0  0  0  0
   -7.8820    2.8017    0.3797 C   0  0  0  0  0  0  0  0  0  0  0  0
   -6.7959    2.0047    0.0013 C   0  0  0  0  0  0  0  0  0  0  0  0
   -6.7457    1.4768   -1.2647 O   0  0  0  0  0  0  0  0  0  0  0  0
   -5.7529    1.7464    0.9180 C   0  0  0  0  0  0  0  0  0  0  0  0
   -4.5359    2.1809    3.8506 H   0  0  0  0  0  0  0  0  0  0  0  0
   -7.5475    1.7376   -1.7438 H   0  0  0  0  0  0  0  0  0  0  0  0
   -3.9862    0.2136   -0.2854 C   0  0  0  0  0  0  0  0  0  0  0  0
   -4.5708   -1.2092   -0.3462 C   0  0  0  0  0  0  0  0  0  0  0  0
   -2.4260   -2.1026    0.3943 C   0  0  0  0  0  0  0  0  0  0  0  0
   -3.8811   -2.1813    0.5312 N   0  0  0  0  0  0  0  0  0  0  0  0
   -4.3346   -3.5386    0.2172 C   0  0  0  0  0  0  0  0  0  0  0  0
 15 16  1  0
 16 17  1  0
 16 14  1  0
 14 13  1  0
 13  1  1  0
  1  2  2  0
  2  3  1  0
  3  4  1  0
  4  5  2  0
  5  6  1  0
  6  7  2  0
  7  8  1  0
  8  9  1  0
  8 10  2  0
 10  1  1  0
 10  4  1  0
  3 11  1  0
  9 12  1  0
M  END
> <input_smiles>
CN(C)CCc1c[nH]c2cccc(O)c12

> <prot_variant_index>
0

> <minimizedAffinity>
0.00000

> <CNNscore>
0.7525021434

> <CNNaffinity>
3.4817454815

> <CNN_VS>
2.6200208664

> <CNNaffinity_variance>
0.7171843648

$$$$
Psilocin__p0


 17 18  0  0  0  0  0  0  0  0999 V2000
    6.3042   -1.5921   -1.7091 C   0  0  0  0  0  0  0  0  0  0  0  0
    5.6034   -0.5237   -2.2366 C   0  0  0  0  0  0  0  0  0  0  0  0
    5.6299    0.4987   -1.3291 N   0  0  0  0  0  0  0  0  0  0  0  0
    6.3338    0.1249   -0.2087 C   0  0  0  0  0  0  0  0  0  0  0  0
    6.6118    0.8452    0.9599 C   0  0  0  0  0  0  0  0  0  0  0  0
    7.3623    0.2096    1.9533 C   0  0  0  0  0  0  0  0  0  0  0  0
    7.8175   -1.0965    1.7853 C   0  0  0  0  0  0  0  0  0  0  0  0
    7.5287   -1.7983    0.6098 C   0  0  0  0  0  0  0  0  0  0  0  0
    7.9792   -3.0857    0.4559 O   0  0  0  0  0  0  0  0  0  0  0  0
    6.7733   -1.1854   -0.4142 C   0  0  0  0  0  0  0  0  0  0  0  0
    5.1976    1.4026   -1.4581 H   0  0  0  0  0  0  0  0  0  0  0  0
    8.4927   -3.3328    1.2406 H   0  0  0  0  0  0  0  0  0  0  0  0
    6.5252   -2.9184   -2.3774 C   0  0  0  0  0  0  0  0  0  0  0  0
    5.4309   -3.9394   -2.0175 C   0  0  0  0  0  0  0  0  0  0  0  0
    5.0209   -3.8398   -4.4193 C   0  0  0  0  0  0  0  0  0  0  0  0
    4.4713   -4.2044   -3.1127 N   0  0  0  0  0  0  0  0  0  0  0  0
    3.2311   -3.4619   -2.8734 C   0  0  0  0  0  0  0  0  0  0  0  0
 15 16  1  0
 16 17  1  0
 16 14  1  0
 14 13  1  0
 13  1  1  0
  1  2  2  0
  2  3  1  0
  3  4  1  0
  4  5  2  0
  5  6  1  0
  6  7  2  0
  7  8  1  0
  8  9  1  0
  8 10  2  0
 10  1  1  0
 10  4  1  0
  3 11  1  0
  9 12  1  0
M  END
> <input_smiles>
CN(C)CCc1c[nH]c2cccc(O)c12

> <prot_variant_index>
0

> <minimizedAffinity>
0.00000

> <CNNscore>
0.7459253669

> <CNNaffinity>
3.7131338120

> <CNN_VS>
2.7697207928

> <CNNaffinity_variance>
0.6485651135

$$$$
Psilocin__p0


 17 18  0  0  0  0  0  0  0  0999 V2000
    2.8370    2.8152   -0.0160 C   0  0  0  0  0  0  0  0  0  0  0  0
    1.5260    2.4317    0.1961 C   0  0  0  0  0  0  0  0  0  0  0  0
    0.7220    3.1760   -0.6219 N   0  0  0  0  0  0  0  0  0  0  0  0
    1.4776    4.0476   -1.3701 C   0  0  0  0  0  0  0  0  0  0  0  0
    1.0790    4.9890   -2.3275 C   0  0  0  0  0  0  0  0  0  0  0  0
    2.0748    5.7525   -2.9436 C   0  0  0  0  0  0  0  0  0  0  0  0
    3.4180    5.5818   -2.6151 C   0  0  0  0  0  0  0  0  0  0  0  0
    3.7948    4.6354   -1.6558 C   0  0  0  0  0  0  0  0  0  0  0  0
    5.1206    4.4775   -1.3374 O   0  0  0  0  0  0  0  0  0  0  0  0
    2.8139    3.8469   -1.0147 C   0  0  0  0  0  0  0  0  0  0  0  0
   -0.2840    3.0999   -0.6749 H   0  0  0  0  0  0  0  0  0  0  0  0
    5.6472    5.0800   -1.8852 H   0  0  0  0  0  0  0  0  0  0  0  0
    4.0444    2.2488    0.6737 C   0  0  0  0  0  0  0  0  0  0  0  0
    4.4514    3.0773    1.9057 C   0  0  0  0  0  0  0  0  0  0  0  0
    2.8819    3.7840    3.6331 C   0  0  0  0  0  0  0  0  0  0  0  0
    3.7378    2.7010    3.1465 N   0  0  0  0  0  0  0  0  0  0  0  0
    4.7071    2.3337    4.1818 C   0  0  0  0  0  0  0  0  0  0  0  0
 15 16  1  0
 16 17  1  0
 16 14  1  0
 14 13  1  0
 13  1  1  0
  1  2  2  0
  2  3  1  0
  3  4  1  0
  4  5  2  0
  5  6  1  0
  6  7  2  0
  7  8  1  0
  8  9  1  0
  8 10  2  0
 10  1  1  0
 10  4  1  0
  3 11  1  0
  9 12  1  0
M  END
> <input_smiles>
CN(C)CCc1c[nH]c2cccc(O)c12

> <prot_variant_index>
0

> <minimizedAffinity>
0.00000

> <CNNscore>
0.7430006266

> <CNNaffinity>
3.5160560608

> <CNN_VS>
2.6124317646

> <CNNaffinity_variance>
1.0763853788

$$$$
Psilocin__p0


 17 18  0  0  0  0  0  0  0  0999 V2000
    4.5946    3.9596   -4.2476 C   0  0  0  0  0  0  0  0  0  0  0  0
    4.1087    2.8479   -4.9101 C   0  0  0  0  0  0  0  0  0  0  0  0
    3.2873    3.2719   -5.9177 N   0  0  0  0  0  0  0  0  0  0  0  0
    3.2188    4.6450   -5.9321 C   0  0  0  0  0  0  0  0  0  0  0  0
    2.5051    5.5003   -6.7813 C   0  0  0  0  0  0  0  0  0  0  0  0
    2.6213    6.8766   -6.5662 C   0  0  0  0  0  0  0  0  0  0  0  0
    3.4201    7.3793   -5.5412 C   0  0  0  0  0  0  0  0  0  0  0  0
    4.1250    6.5071   -4.7043 C   0  0  0  0  0  0  0  0  0  0  0  0
    4.9066    7.0127   -3.6956 O   0  0  0  0  0  0  0  0  0  0  0  0
    4.0304    5.1108   -4.8945 C   0  0  0  0  0  0  0  0  0  0  0  0
    2.7992    2.6678   -6.5636 H   0  0  0  0  0  0  0  0  0  0  0  0
    4.8696    7.9812   -3.7273 H   0  0  0  0  0  0  0  0  0  0  0  0
    5.5347    3.9480   -3.0770 C   0  0  0  0  0  0  0  0  0  0  0  0
    4.7876    3.9931   -1.7318 C   0  0  0  0  0  0  0  0  0  0  0  0
    2.9512    2.4848   -1.1847 C   0  0  0  0  0  0  0  0  0  0  0  0
    4.4038    2.6618   -1.2115 N   0  0  0  0  0  0  0  0  0  0  0  0
    4.9487    2.4824    0.1367 C   0  0  0  0  0  0  0  0  0  0  0  0
 15 16  1  0
 16 17  1  0
 16 14  1  0
 14 13  1  0
 13  1  1  0
  1  2  2  0
  2  3  1  0
  3  4  1  0
  4  5  2  0
  5  6  1  0
  6  7  2  0
  7  8  1  0
  8  9  1  0
  8 10  2  0
 10  1  1  0
 10  4  1  0
  3 11  1  0
  9 12  1  0
M  END
> <input_smiles>
CN(C)CCc1c[nH]c2cccc(O)c12

> <prot_variant_index>
0

> <minimizedAffinity>
0.00000

> <CNNscore>
0.7359013557

> <CNNaffinity>
3.4149949551

> <CNN_VS>
2.5130994320

> <CNNaffinity_variance>
0.5976832509

$$$$
Psilocin__p0


 17 18  0  0  0  0  0  0  0  0999 V2000
    5.3744    3.8313   -3.8483 C   0  0  0  0  0  0  0  0  0  0  0  0
    5.4508    5.0398   -4.5150 C   0  0  0  0  0  0  0  0  0  0  0  0
    5.5143    6.0409   -3.5858 N   0  0  0  0  0  0  0  0  0  0  0  0
    5.4786    5.5163   -2.3154 C   0  0  0  0  0  0  0  0  0  0  0  0
    5.5182    6.1641   -1.0741 C   0  0  0  0  0  0  0  0  0  0  0  0
    5.4666    5.3711    0.0758 C   0  0  0  0  0  0  0  0  0  0  0  0
    5.3785    3.9833   -0.0112 C   0  0  0  0  0  0  0  0  0  0  0  0
    5.3405    3.3561   -1.2614 C   0  0  0  0  0  0  0  0  0  0  0  0
    5.2505    1.9885   -1.3359 O   0  0  0  0  0  0  0  0  0  0  0  0
    5.3914    4.1277   -2.4433 C   0  0  0  0  0  0  0  0  0  0  0  0
    5.5800    7.0267   -3.7962 H   0  0  0  0  0  0  0  0  0  0  0  0
    5.2482    1.6262   -0.4363 H   0  0  0  0  0  0  0  0  0  0  0  0
    5.2921    2.4750   -4.4873 C   0  0  0  0  0  0  0  0  0  0  0  0
    6.6784    1.8275   -4.6560 C   0  0  0  0  0  0  0  0  0  0  0  0
    5.3500   -0.1610   -4.1787 C   0  0  0  0  0  0  0  0  0  0  0  0
    6.6948    0.3680   -4.4110 N   0  0  0  0  0  0  0  0  0  0  0  0
    7.5491    0.0701   -3.2586 C   0  0  0  0  0  0  0  0  0  0  0  0
 15 16  1  0
 16 17  1  0
 16 14  1  0
 14 13  1  0
 13  1  1  0
  1  2  2  0
  2  3  1  0
  3  4  1  0
  4  5  2  0
  5  6  1  0
  6  7  2  0
  7  8  1  0
  8  9  1  0
  8 10  2  0
 10  1  1  0
 10  4  1  0
  3 11  1  0
  9 12  1  0
M  END
> <input_smiles>
CN(C)CCc1c[nH]c2cccc(O)c12

> <prot_variant_index>
0

> <minimizedAffinity>
0.00000

> <CNNscore>
0.7345488071

> <CNNaffinity>
3.6367139816

> <CNN_VS>
2.6713438034

> <CNNaffinity_variance>
0.4800841510

$$$$
Psilocin__p0


 17 18  0  0  0  0  0  0  0  0999 V2000
   -5.3146    0.2957    2.2670 C   0  0  0  0  0  0  0  0  0  0  0  0
   -4.3620    0.5258    3.2418 C   0  0  0  0  0  0  0  0  0  0  0  0
   -4.9963    0.9784    4.3654 N   0  0  0  0  0  0  0  0  0  0  0  0
   -6.3521    1.0545    4.1505 C   0  0  0  0  0  0  0  0  0  0  0  0
   -7.3774    1.4620    5.0135 C   0  0  0  0  0  0  0  0  0  0  0  0
   -8.6870    1.4383    4.5253 C   0  0  0  0  0  0  0  0  0  0  0  0
   -8.9617    1.0235    3.2238 C   0  0  0  0  0  0  0  0  0  0  0  0
   -7.9225    0.6202    2.3780 C   0  0  0  0  0  0  0  0  0  0  0  0
   -8.2038    0.2164    1.0967 O   0  0  0  0  0  0  0  0  0  0  0  0
   -6.5878    0.6313    2.8399 C   0  0  0  0  0  0  0  0  0  0  0  0
   -4.5399    1.2220    5.2331 H   0  0  0  0  0  0  0  0  0  0  0  0
   -9.1634    0.2523    0.9615 H   0  0  0  0  0  0  0  0  0  0  0  0
   -5.0511   -0.2111    0.8784 C   0  0  0  0  0  0  0  0  0  0  0  0
   -4.8544    0.9349   -0.1304 C   0  0  0  0  0  0  0  0  0  0  0  0
   -6.1642    1.3018   -2.1544 C   0  0  0  0  0  0  0  0  0  0  0  0
   -6.1161    1.4586   -0.7000 N   0  0  0  0  0  0  0  0  0  0  0  0
   -6.2665    2.8733   -0.3500 C   0  0  0  0  0  0  0  0  0  0  0  0
 15 16  1  0
 16 17  1  0
 16 14  1  0
 14 13  1  0
 13  1  1  0
  1  2  2  0
  2  3  1  0
  3  4  1  0
  4  5  2  0
  5  6  1  0
  6  7  2  0
  7  8  1  0
  8  9  1  0
  8 10  2  0
 10  1  1  0
 10  4  1  0
  3 11  1  0
  9 12  1  0
M  END
> <input_smiles>
CN(C)CCc1c[nH]c2cccc(O)c12

> <prot_variant_index>
0

> <minimizedAffinity>
0.00000

> <CNNscore>
0.7339782119

> <CNNaffinity>
3.3986651897

> <CNN_VS>
2.4945461750

> <CNNaffinity_variance>
0.5373681784

$$$$
Psilocin__p1


 17 18  0  0  0  0  0  0  0  0999 V2000
   -9.0252    5.4696   -2.2082 C   0  0  0  0  0  0  0  0  0  0  0  0
  -10.3085    5.7299   -2.6433 C   0  0  0  0  0  0  0  0  0  0  0  0
  -11.0339    6.1547   -1.5652 N   0  0  0  0  0  0  0  0  0  0  0  0
  -10.2582    6.1664   -0.4296 C   0  0  0  0  0  0  0  0  0  0  0  0
  -10.6100    6.5231    0.8756 C   0  0  0  0  0  0  0  0  0  0  0  0
   -9.6160    6.4507    1.8464 C   0  0  0  0  0  0  0  0  0  0  0  0
   -8.3251    6.0386    1.5162 C   0  0  0  0  0  0  0  0  0  0  0  0
   -7.9487    5.6750    0.2083 C   0  0  0  0  0  0  0  0  0  0  0  0
   -6.7871    5.2951   -0.1473 O   0  0  0  0  0  0  0  0  0  0  0  0
   -8.9718    5.7485   -0.7895 C   0  0  0  0  0  0  0  0  0  0  0  0
  -12.0048    6.4293   -1.5848 H   0  0  0  0  0  0  0  0  0  0  0  0
   -7.8776    4.9887   -3.0281 C   0  0  0  0  0  0  0  0  0  0  0  0
   -7.9681    5.4978   -4.4706 C   0  0  0  0  0  0  0  0  0  0  0  0
   -6.6510    6.7450   -6.1789 C   0  0  0  0  0  0  0  0  0  0  0  0
   -6.5838    5.7533   -5.0664 N   0  0  0  0  0  0  0  0  0  0  0  0
   -5.9574    4.4577   -5.5378 C   0  0  0  0  0  0  0  0  0  0  0  0
   -5.9909    6.1180   -4.3164 H   0  0  0  0  0  0  0  0  0  0  0  0
 14 15  1  0
 15 16  1  0
 15 13  1  0
 13 12  1  0
 12  1  1  0
  1  2  2  0
  2  3  1  0
  3  4  1  0
  4  5  2  0
  5  6  1  0
  6  7  2  0
  7  8  1  0
  8  9  1  0
  8 10  2  0
 10  1  1  0
 10  4  1  0
 15 17  1  0
  3 11  1  0
M  CHG 1   9  -1
M  CHG 1  15   1
M  END
> <input_smiles>
CN(C)CCc1c[nH]c2cccc(O)c12

> <prot_variant_index>
1

> <minimizedAffinity>
0.00000

> <CNNscore>
0.6679502726

> <CNNaffinity>
3.4187324047

> <CNN_VS>
2.2835433483

> <CNNaffinity_variance>
0.7290864587

$$$$
Psilocin__p1


 17 18  0  0  0  0  0  0  0  0999 V2000
    5.5488    3.9530    2.6580 C   0  0  0  0  0  0  0  0  0  0  0  0
    6.9115    3.7374    2.6770 C   0  0  0  0  0  0  0  0  0  0  0  0
    7.4795    4.5926    1.7744 N   0  0  0  0  0  0  0  0  0  0  0  0
    6.5180    5.3555    1.1538 C   0  0  0  0  0  0  0  0  0  0  0  0
    6.6698    6.3368    0.1696 C   0  0  0  0  0  0  0  0  0  0  0  0
    5.5163    6.9685   -0.2844 C   0  0  0  0  0  0  0  0  0  0  0  0
    4.2662    6.6274    0.2315 C   0  0  0  0  0  0  0  0  0  0  0  0
    4.0901    5.6425    1.2232 C   0  0  0  0  0  0  0  0  0  0  0  0
    2.9751    5.2951    1.7294 O   0  0  0  0  0  0  0  0  0  0  0  0
    5.2768    4.9923    1.6888 C   0  0  0  0  0  0  0  0  0  0  0  0
    8.4671    4.6683    1.5815 H   0  0  0  0  0  0  0  0  0  0  0  0
    4.5165    3.2580    3.4778 C   0  0  0  0  0  0  0  0  0  0  0  0
    3.9881    2.0065    2.7688 C   0  0  0  0  0  0  0  0  0  0  0  0
    4.9290    0.9674    4.8288 C   0  0  0  0  0  0  0  0  0  0  0  0
    4.5175    0.7264    3.4152 N   0  0  0  0  0  0  0  0  0  0  0  0
    5.6665    0.1567    2.6101 C   0  0  0  0  0  0  0  0  0  0  0  0
    3.7622    0.0366    3.3901 H   0  0  0  0  0  0  0  0  0  0  0  0
 14 15  1  0
 15 16  1  0
 15 13  1  0
 13 12  1  0
 12  1  1  0
  1  2  2  0
  2  3  1  0
  3  4  1  0
  4  5  2  0
  5  6  1  0
  6  7  2  0
  7  8  1  0
  8  9  1  0
  8 10  2  0
 10  1  1  0
 10  4  1  0
 15 17  1  0
  3 11  1  0
M  CHG 1   9  -1
M  CHG 1  15   1
M  END
> <input_smiles>
CN(C)CCc1c[nH]c2cccc(O)c12

> <prot_variant_index>
1

> <minimizedAffinity>
0.00000

> <CNNscore>
0.6379424930

> <CNNaffinity>
3.5890171528

> <CNN_VS>
2.2895865440

> <CNNaffinity_variance>
1.4886513948

$$$$
Psilocin__p1


 17 18  0  0  0  0  0  0  0  0999 V2000
   -4.5274    0.9991    0.8741 C   0  0  0  0  0  0  0  0  0  0  0  0
   -5.3301    1.8563    0.1496 C   0  0  0  0  0  0  0  0  0  0  0  0
   -6.5544    1.8909    0.7568 N   0  0  0  0  0  0  0  0  0  0  0  0
   -6.5769    1.0650    1.8563 C   0  0  0  0  0  0  0  0  0  0  0  0
   -7.6257    0.8053    2.7434 C   0  0  0  0  0  0  0  0  0  0  0  0
   -7.3729   -0.0771    3.7891 C   0  0  0  0  0  0  0  0  0  0  0  0
   -6.1188   -0.6699    3.9347 C   0  0  0  0  0  0  0  0  0  0  0  0
   -5.0482   -0.4224    3.0533 C   0  0  0  0  0  0  0  0  0  0  0  0
   -3.8857   -0.9334    3.1415 O   0  0  0  0  0  0  0  0  0  0  0  0
   -5.3091    0.4842    1.9773 C   0  0  0  0  0  0  0  0  0  0  0  0
   -7.3421    2.4443    0.4541 H   0  0  0  0  0  0  0  0  0  0  0  0
   -3.1060    0.6478    0.5970 C   0  0  0  0  0  0  0  0  0  0  0  0
   -3.0004   -0.5754   -0.3200 C   0  0  0  0  0  0  0  0  0  0  0  0
   -4.1087   -0.5805   -2.5516 C   0  0  0  0  0  0  0  0  0  0  0  0
   -2.8931   -0.1706   -1.7901 N   0  0  0  0  0  0  0  0  0  0  0  0
   -1.6440   -0.7550   -2.4156 C   0  0  0  0  0  0  0  0  0  0  0  0
   -2.7959    0.8476   -1.8203 H   0  0  0  0  0  0  0  0  0  0  0  0
 14 15  1  0
 15 16  1  0
 15 13  1  0
 13 12  1  0
 12  1  1  0
  1  2  2  0
  2  3  1  0
  3  4  1  0
  4  5  2  0
  5  6  1  0
  6  7  2  0
  7  8  1  0
  8  9  1  0
  8 10  2  0
 10  1  1  0
 10  4  1  0
 15 17  1  0
  3 11  1  0
M  CHG 1   9  -1
M  CHG 1  15   1
M  END
> <input_smiles>
CN(C)CCc1c[nH]c2cccc(O)c12

> <prot_variant_index>
1

> <minimizedAffinity>
0.00000

> <CNNscore>
0.6318609715

> <CNNaffinity>
3.2955064774

> <CNN_VS>
2.0823018551

> <CNNaffinity_variance>
0.7978570461

$$$$
Psilocin__p1


 17 18  0  0  0  0  0  0  0  0999 V2000
   -3.4662    0.7073   -0.4594 C   0  0  0  0  0  0  0  0  0  0  0  0
   -4.3066    1.6052   -1.0851 C   0  0  0  0  0  0  0  0  0  0  0  0
   -5.5390    1.4944   -0.5038 N   0  0  0  0  0  0  0  0  0  0  0  0
   -5.5291    0.5341    0.4807 C   0  0  0  0  0  0  0  0  0  0  0  0
   -6.5732    0.1054    1.3057 C   0  0  0  0  0  0  0  0  0  0  0  0
   -6.2846   -0.8888    2.2352 C   0  0  0  0  0  0  0  0  0  0  0  0
   -5.0008   -1.4257    2.3299 C   0  0  0  0  0  0  0  0  0  0  0  0
   -3.9343   -1.0088    1.5094 C   0  0  0  0  0  0  0  0  0  0  0  0
   -2.7459   -1.4624    1.5557 O   0  0  0  0  0  0  0  0  0  0  0  0
   -4.2321    0.0129    0.5528 C   0  0  0  0  0  0  0  0  0  0  0  0
   -6.3528    2.0380   -0.7496 H   0  0  0  0  0  0  0  0  0  0  0  0
   -2.0235    0.4729   -0.7498 C   0  0  0  0  0  0  0  0  0  0  0  0
   -1.1271    1.3805    0.0993 C   0  0  0  0  0  0  0  0  0  0  0  0
   -0.5437    2.4697   -2.0644 C   0  0  0  0  0  0  0  0  0  0  0  0
   -0.8177    2.6958   -0.6155 N   0  0  0  0  0  0  0  0  0  0  0  0
    0.3450    3.4039    0.0477 C   0  0  0  0  0  0  0  0  0  0  0  0
   -1.6366    3.3003   -0.5109 H   0  0  0  0  0  0  0  0  0  0  0  0
 14 15  1  0
 15 16  1  0
 15 13  1  0
 13 12  1  0
 12  1  1  0
  1  2  2  0
  2  3  1  0
  3  4  1  0
  4  5  2  0
  5  6  1  0
  6  7  2  0
  7  8  1  0
  8  9  1  0
  8 10  2  0
 10  1  1  0
 10  4  1  0
 15 17  1  0
  3 11  1  0
M  CHG 1   9  -1
M  CHG 1  15   1
M  END
> <input_smiles>
CN(C)CCc1c[nH]c2cccc(O)c12

> <prot_variant_index>
1

> <minimizedAffinity>
0.00000

> <CNNscore>
0.6234790683

> <CNNaffinity>
3.2106199265

> <CNN_VS>
2.0017542839

> <CNNaffinity_variance>
0.7024715543

$$$$
Psilocin__p1


 17 18  0  0  0  0  0  0  0  0999 V2000
    5.3750    3.8313   -3.8483 C   0  0  0  0  0  0  0  0  0  0  0  0
    5.1484    3.2775   -2.6050 C   0  0  0  0  0  0  0  0  0  0  0  0
    5.6309    4.1488   -1.6686 N   0  0  0  0  0  0  0  0  0  0  0  0
    6.1811    5.2562   -2.2707 C   0  0  0  0  0  0  0  0  0  0  0  0
    6.7860    6.3710   -1.6828 C   0  0  0  0  0  0  0  0  0  0  0  0
    7.2567    7.3649   -2.5351 C   0  0  0  0  0  0  0  0  0  0  0  0
    7.1223    7.2411   -3.9179 C   0  0  0  0  0  0  0  0  0  0  0  0
    6.5162    6.1273   -4.5314 C   0  0  0  0  0  0  0  0  0  0  0  0
    6.3658    5.9655   -5.7849 O   0  0  0  0  0  0  0  0  0  0  0  0
    6.0334    5.1049   -3.6543 C   0  0  0  0  0  0  0  0  0  0  0  0
    5.5926    4.0139   -0.6692 H   0  0  0  0  0  0  0  0  0  0  0  0
    5.0159    3.2481   -5.1718 C   0  0  0  0  0  0  0  0  0  0  0  0
    3.6101    3.6741   -5.6082 C   0  0  0  0  0  0  0  0  0  0  0  0
    1.7727    2.1551   -6.3329 C   0  0  0  0  0  0  0  0  0  0  0  0
    2.5520    2.6632   -5.1666 N   0  0  0  0  0  0  0  0  0  0  0  0
    1.6320    3.2712   -4.1287 C   0  0  0  0  0  0  0  0  0  0  0  0
    3.0414    1.8860   -4.7155 H   0  0  0  0  0  0  0  0  0  0  0  0
 14 15  1  0
 15 16  1  0
 15 13  1  0
 13 12  1  0
 12  1  1  0
  1  2  2  0
  2  3  1  0
  3  4  1  0
  4  5  2  0
  5  6  1  0
  6  7  2  0
  7  8  1  0
  8  9  1  0
  8 10  2  0
 10  1  1  0
 10  4  1  0
 15 17  1  0
  3 11  1  0
M  CHG 1   9  -1
M  CHG 1  15   1
M  END
> <input_smiles>
CN(C)CCc1c[nH]c2cccc(O)c12

> <prot_variant_index>
1

> <minimizedAffinity>
0.00000

> <CNNscore>
0.5969121456

> <CNNaffinity>
3.4200656414

> <CNN_VS>
2.0414786339

> <CNNaffinity_variance>
0.9904768467

$$$$
Psilocin__p1


 17 18  0  0  0  0  0  0  0  0999 V2000
   -2.9490    0.8440   -3.0844 C   0  0  0  0  0  0  0  0  0  0  0  0
   -4.1944    0.8012   -3.6772 C   0  0  0  0  0  0  0  0  0  0  0  0
   -4.6214   -0.4972   -3.6520 N   0  0  0  0  0  0  0  0  0  0  0  0
   -3.6779   -1.3096   -3.0677 C   0  0  0  0  0  0  0  0  0  0  0  0
   -3.7136   -2.6906   -2.8534 C   0  0  0  0  0  0  0  0  0  0  0  0
   -2.6143   -3.2671   -2.2249 C   0  0  0  0  0  0  0  0  0  0  0  0
   -1.5285   -2.4864   -1.8290 C   0  0  0  0  0  0  0  0  0  0  0  0
   -1.4716   -1.0939   -2.0345 C   0  0  0  0  0  0  0  0  0  0  0  0
   -0.5086   -0.3355   -1.6914 O   0  0  0  0  0  0  0  0  0  0  0  0
   -2.6020   -0.5017   -2.6820 C   0  0  0  0  0  0  0  0  0  0  0  0
   -5.5062   -0.8290   -4.0061 H   0  0  0  0  0  0  0  0  0  0  0  0
   -2.0914    2.0451   -2.8788 C   0  0  0  0  0  0  0  0  0  0  0  0
   -1.1541    2.2740   -4.0694 C   0  0  0  0  0  0  0  0  0  0  0  0
   -2.0534    2.4905   -6.3830 C   0  0  0  0  0  0  0  0  0  0  0  0
   -1.7767    3.2096   -5.1055 N   0  0  0  0  0  0  0  0  0  0  0  0
   -0.8852    4.4098   -5.3460 C   0  0  0  0  0  0  0  0  0  0  0  0
   -2.6536    3.5609   -4.7121 H   0  0  0  0  0  0  0  0  0  0  0  0
 14 15  1  0
 15 16  1  0
 15 13  1  0
 13 12  1  0
 12  1  1  0
  1  2  2  0
  2  3  1  0
  3  4  1  0
  4  5  2  0
  5  6  1  0
  6  7  2  0
  7  8  1  0
  8  9  1  0
  8 10  2  0
 10  1  1  0
 10  4  1  0
 15 17  1  0
  3 11  1  0
M  CHG 1   9  -1
M  CHG 1  15   1
M  END
> <input_smiles>
CN(C)CCc1c[nH]c2cccc(O)c12

> <prot_variant_index>
1

> <minimizedAffinity>
0.00000

> <CNNscore>
0.5959261656

> <CNNaffinity>
3.2580673695

> <CNN_VS>
1.9415675402

> <CNNaffinity_variance>
0.9066500068

$$$$
Psilocin__p1


 17 18  0  0  0  0  0  0  0  0999 V2000
    4.5951    3.9596   -1.8445 C   0  0  0  0  0  0  0  0  0  0  0  0
    5.4075    2.8819   -2.1318 C   0  0  0  0  0  0  0  0  0  0  0  0
    6.1641    2.6254   -1.0225 N   0  0  0  0  0  0  0  0  0  0  0  0
    5.8755    3.5194   -0.0180 C   0  0  0  0  0  0  0  0  0  0  0  0
    6.4242    3.6130    1.2644 C   0  0  0  0  0  0  0  0  0  0  0  0
    5.9392    4.6192    2.0938 C   0  0  0  0  0  0  0  0  0  0  0  0
    4.9446    5.4910    1.6509 C   0  0  0  0  0  0  0  0  0  0  0  0
    4.3776    5.4148    0.3636 C   0  0  0  0  0  0  0  0  0  0  0  0
    3.4680    6.1813   -0.0893 O   0  0  0  0  0  0  0  0  0  0  0  0
    4.8778    4.3804   -0.4894 C   0  0  0  0  0  0  0  0  0  0  0  0
    6.8425    1.8833   -0.9358 H   0  0  0  0  0  0  0  0  0  0  0  0
    3.5945    4.5974   -2.7459 C   0  0  0  0  0  0  0  0  0  0  0  0
    4.2207    5.7322   -3.5633 C   0  0  0  0  0  0  0  0  0  0  0  0
    5.0381    6.3624   -5.8312 C   0  0  0  0  0  0  0  0  0  0  0  0
    4.7687    5.2294   -4.8988 N   0  0  0  0  0  0  0  0  0  0  0  0
    3.8173    4.2317   -5.5253 C   0  0  0  0  0  0  0  0  0  0  0  0
    5.6405    4.7308   -4.7030 H   0  0  0  0  0  0  0  0  0  0  0  0
 14 15  1  0
 15 16  1  0
 15 13  1  0
 13 12  1  0
 12  1  1  0
  1  2  2  0
  2  3  1  0
  3  4  1  0
  4  5  2  0
  5  6  1  0
  6  7  2  0
  7  8  1  0
  8  9  1  0
  8 10  2  0
 10  1  1  0
 10  4  1  0
 15 17  1  0
  3 11  1  0
M  CHG 1   9  -1
M  CHG 1  15   1
M  END
> <input_smiles>
CN(C)CCc1c[nH]c2cccc(O)c12

> <prot_variant_index>
1

> <minimizedAffinity>
0.00000

> <CNNscore>
0.5951701403

> <CNNaffinity>
3.2907893658

> <CNN_VS>
1.9585795403

> <CNNaffinity_variance>
0.8259641528

$$$$
Psilocin__p1


 17 18  0  0  0  0  0  0  0  0999 V2000
    6.6573    2.8305   -3.1713 C   0  0  0  0  0  0  0  0  0  0  0  0
    6.3946    2.5035   -1.8567 C   0  0  0  0  0  0  0  0  0  0  0  0
    7.3020    3.1635   -1.0758 N   0  0  0  0  0  0  0  0  0  0  0  0
    8.1628    3.9060   -1.8498 C   0  0  0  0  0  0  0  0  0  0  0  0
    9.2324    4.7139   -1.4529 C   0  0  0  0  0  0  0  0  0  0  0  0
    9.9431    5.3684   -2.4541 C   0  0  0  0  0  0  0  0  0  0  0  0
    9.5905    5.2165   -3.7949 C   0  0  0  0  0  0  0  0  0  0  0  0
    8.5167    4.4082   -4.2172 C   0  0  0  0  0  0  0  0  0  0  0  0
    8.1514    4.2370   -5.4244 O   0  0  0  0  0  0  0  0  0  0  0  0
    7.7870    3.7343   -3.1871 C   0  0  0  0  0  0  0  0  0  0  0  0
    7.3447    3.1243   -0.0683 H   0  0  0  0  0  0  0  0  0  0  0  0
    5.9257    2.3562   -4.3797 C   0  0  0  0  0  0  0  0  0  0  0  0
    4.6087    3.1159   -4.5707 C   0  0  0  0  0  0  0  0  0  0  0  0
    2.6053    2.4823   -3.2315 C   0  0  0  0  0  0  0  0  0  0  0  0
    3.4002    2.1865   -4.4587 N   0  0  0  0  0  0  0  0  0  0  0  0
    3.8371    0.7367   -4.4801 C   0  0  0  0  0  0  0  0  0  0  0  0
    2.8206    2.3377   -5.2883 H   0  0  0  0  0  0  0  0  0  0  0  0
 14 15  1  0
 15 16  1  0
 15 13  1  0
 13 12  1  0
 12  1  1  0
  1  2  2  0
  2  3  1  0
  3  4  1  0
  4  5  2  0
  5  6  1  0
  6  7  2  0
  7  8  1  0
  8  9  1  0
  8 10  2  0
 10  1  1  0
 10  4  1  0
 15 17  1  0
  3 11  1  0
M  CHG 1   9  -1
M  CHG 1  15   1
M  END
> <input_smiles>
CN(C)CCc1c[nH]c2cccc(O)c12

> <prot_variant_index>
1

> <minimizedAffinity>
0.00000

> <CNNscore>
0.5912383795

> <CNNaffinity>
3.4330377579

> <CNN_VS>
2.0297436714

> <CNNaffinity_variance>
1.1760523319

$$$$
Psilocin__p1


 17 18  0  0  0  0  0  0  0  0999 V2000
    3.9134    4.2217   -2.1685 C   0  0  0  0  0  0  0  0  0  0  0  0
    3.5381    2.8946   -2.2123 C   0  0  0  0  0  0  0  0  0  0  0  0
    4.5636    2.1560   -1.6909 N   0  0  0  0  0  0  0  0  0  0  0  0
    5.6090    2.9682   -1.3181 C   0  0  0  0  0  0  0  0  0  0  0  0
    6.8402    2.6191   -0.7555 C   0  0  0  0  0  0  0  0  0  0  0  0
    7.7242    3.6532   -0.4637 C   0  0  0  0  0  0  0  0  0  0  0  0
    7.3819    4.9795   -0.7260 C   0  0  0  0  0  0  0  0  0  0  0  0
    6.1473    5.3539   -1.2919 C   0  0  0  0  0  0  0  0  0  0  0  0
    5.7839    6.5464   -1.5489 O   0  0  0  0  0  0  0  0  0  0  0  0
    5.2391    4.2898   -1.5929 C   0  0  0  0  0  0  0  0  0  0  0  0
    4.5665    1.1526   -1.5841 H   0  0  0  0  0  0  0  0  0  0  0  0
    3.1178    5.3970   -2.6228 C   0  0  0  0  0  0  0  0  0  0  0  0
    3.3851    5.7176   -4.0972 C   0  0  0  0  0  0  0  0  0  0  0  0
    0.9399    5.2495   -4.1970 C   0  0  0  0  0  0  0  0  0  0  0  0
    2.2055    5.3191   -4.9838 N   0  0  0  0  0  0  0  0  0  0  0  0
    2.4801    4.0018   -5.6785 C   0  0  0  0  0  0  0  0  0  0  0  0
    2.1176    6.0308   -5.7136 H   0  0  0  0  0  0  0  0  0  0  0  0
 14 15  1  0
 15 16  1  0
 15 13  1  0
 13 12  1  0
 12  1  1  0
  1  2  2  0
  2  3  1  0
  3  4  1  0
  4  5  2  0
  5  6  1  0
  6  7  2  0
  7  8  1  0
  8  9  1  0
  8 10  2  0
 10  1  1  0
 10  4  1  0
 15 17  1  0
  3 11  1  0
M  CHG 1   9  -1
M  CHG 1  15   1
M  END
> <input_smiles>
CN(C)CCc1c[nH]c2cccc(O)c12

> <prot_variant_index>
1

> <minimizedAffinity>
0.00000

> <CNNscore>
0.5884725451

> <CNNaffinity>
3.2620985508

> <CNN_VS>
1.9196554422

> <CNNaffinity_variance>
0.8931486607

$$$$
Psilocin__p1


 17 18  0  0  0  0  0  0  0  0999 V2000
    6.4007    3.2037   -3.6327 C   0  0  0  0  0  0  0  0  0  0  0  0
    6.1741    2.6499   -2.3893 C   0  0  0  0  0  0  0  0  0  0  0  0
    6.6566    3.5212   -1.4529 N   0  0  0  0  0  0  0  0  0  0  0  0
    7.2067    4.6286   -2.0550 C   0  0  0  0  0  0  0  0  0  0  0  0
    7.8117    5.7435   -1.4671 C   0  0  0  0  0  0  0  0  0  0  0  0
    8.2824    6.7373   -2.3195 C   0  0  0  0  0  0  0  0  0  0  0  0
    8.1480    6.6136   -3.7022 C   0  0  0  0  0  0  0  0  0  0  0  0
    7.5419    5.4997   -4.3157 C   0  0  0  0  0  0  0  0  0  0  0  0
    7.3915    5.3379   -5.5693 O   0  0  0  0  0  0  0  0  0  0  0  0
    7.0591    4.4773   -3.4386 C   0  0  0  0  0  0  0  0  0  0  0  0
    6.6183    3.3863   -0.4536 H   0  0  0  0  0  0  0  0  0  0  0  0
    6.0416    2.6205   -4.9562 C   0  0  0  0  0  0  0  0  0  0  0  0
    6.3984    1.1320   -5.0273 C   0  0  0  0  0  0  0  0  0  0  0  0
    8.8561    0.7295   -4.9478 C   0  0  0  0  0  0  0  0  0  0  0  0
    7.6716    0.8955   -5.8394 N   0  0  0  0  0  0  0  0  0  0  0  0
    7.8941    2.0234   -6.8250 C   0  0  0  0  0  0  0  0  0  0  0  0
    7.5310    0.0422   -6.3864 H   0  0  0  0  0  0  0  0  0  0  0  0
 14 15  1  0
 15 16  1  0
 15 13  1  0
 13 12  1  0
 12  1  1  0
  1  2  2  0
  2  3  1  0
  3  4  1  0
  4  5  2  0
  5  6  1  0
  6  7  2  0
  7  8  1  0
  8  9  1  0
  8 10  2  0
 10  1  1  0
 10  4  1  0
 15 17  1  0
  3 11  1  0
M  CHG 1   9  -1
M  CHG 1  15   1
M  END
> <input_smiles>
CN(C)CCc1c[nH]c2cccc(O)c12

> <prot_variant_index>
1

> <minimizedAffinity>
0.00000

> <CNNscore>
0.5660696030

> <CNNaffinity>
3.4300663471

> <CNN_VS>
1.9416563511

> <CNNaffinity_variance>
1.5204268694

$$$$
Psilocin__p1


 17 18  0  0  0  0  0  0  0  0999 V2000
   -4.3749    0.3340   -2.2870 C   0  0  0  0  0  0  0  0  0  0  0  0
   -5.2124    0.7906   -3.2840 C   0  0  0  0  0  0  0  0  0  0  0  0
   -6.3733    0.0723   -3.2119 N   0  0  0  0  0  0  0  0  0  0  0  0
   -6.3109   -0.8547   -2.1979 C   0  0  0  0  0  0  0  0  0  0  0  0
   -7.2713   -1.7871   -1.7945 C   0  0  0  0  0  0  0  0  0  0  0  0
   -6.9493   -2.6103   -0.7200 C   0  0  0  0  0  0  0  0  0  0  0  0
   -5.7152   -2.4977   -0.0801 C   0  0  0  0  0  0  0  0  0  0  0  0
   -4.7333   -1.5655   -0.4694 C   0  0  0  0  0  0  0  0  0  0  0  0
   -3.5945   -1.4193    0.0803 O   0  0  0  0  0  0  0  0  0  0  0  0
   -5.0646   -0.7201   -1.5753 C   0  0  0  0  0  0  0  0  0  0  0  0
   -7.1761    0.1961   -3.8107 H   0  0  0  0  0  0  0  0  0  0  0  0
   -3.0017    0.8202   -1.9729 C   0  0  0  0  0  0  0  0  0  0  0  0
   -3.0333    1.9718   -0.9624 C   0  0  0  0  0  0  0  0  0  0  0  0
   -1.9167    4.1859   -1.2063 C   0  0  0  0  0  0  0  0  0  0  0  0
   -3.0537    3.3325   -1.6585 N   0  0  0  0  0  0  0  0  0  0  0  0
   -4.3767    4.0318   -1.4264 C   0  0  0  0  0  0  0  0  0  0  0  0
   -2.9766    3.1622   -2.6645 H   0  0  0  0  0  0  0  0  0  0  0  0
 14 15  1  0
 15 16  1  0
 15 13  1  0
 13 12  1  0
 12  1  1  0
  1  2  2  0
  2  3  1  0
  3  4  1  0
  4  5  2  0
  5  6  1  0
  6  7  2  0
  7  8  1  0
  8  9  1  0
  8 10  2  0
 10  1  1  0
 10  4  1  0
 15 17  1  0
  3 11  1  0
M  CHG 1   9  -1
M  CHG 1  15   1
M  END
> <input_smiles>
CN(C)CCc1c[nH]c2cccc(O)c12

> <prot_variant_index>
1

> <minimizedAffinity>
0.00000

> <CNNscore>
0.5555025339

> <CNNaffinity>
3.1262185574

> <CNN_VS>
1.7366223335

> <CNNaffinity_variance>
0.6796978116

$$$$
Psilocin__p1


 17 18  0  0  0  0  0  0  0  0999 V2000
    6.2281    4.9265    3.7561 C   0  0  0  0  0  0  0  0  0  0  0  0
    6.1490    3.6443    4.2596 C   0  0  0  0  0  0  0  0  0  0  0  0
    7.1741    3.4842    5.1498 N   0  0  0  0  0  0  0  0  0  0  0  0
    7.9321    4.6289    5.2316 C   0  0  0  0  0  0  0  0  0  0  0  0
    9.0661    4.8825    6.0088 C   0  0  0  0  0  0  0  0  0  0  0  0
    9.6409    6.1453    5.9053 C   0  0  0  0  0  0  0  0  0  0  0  0
    9.0962    7.1096    5.0574 C   0  0  0  0  0  0  0  0  0  0  0  0
    7.9545    6.8759    4.2660 C   0  0  0  0  0  0  0  0  0  0  0  0
    7.4160    7.7193    3.4793 O   0  0  0  0  0  0  0  0  0  0  0  0
    7.3645    5.5765    4.3720 C   0  0  0  0  0  0  0  0  0  0  0  0
    7.3599    2.6485    5.6840 H   0  0  0  0  0  0  0  0  0  0  0  0
    5.3199    5.5586    2.7579 C   0  0  0  0  0  0  0  0  0  0  0  0
    5.8187    5.3341    1.3265 C   0  0  0  0  0  0  0  0  0  0  0  0
    6.2503    3.0357    0.4664 C   0  0  0  0  0  0  0  0  0  0  0  0
    5.2089    4.0764    0.7076 N   0  0  0  0  0  0  0  0  0  0  0  0
    4.4772    4.4126   -0.5748 C   0  0  0  0  0  0  0  0  0  0  0  0
    4.5120    3.7189    1.3661 H   0  0  0  0  0  0  0  0  0  0  0  0
 14 15  1  0
 15 16  1  0
 15 13  1  0
 13 12  1  0
 12  1  1  0
  1  2  2  0
  2  3  1  0
  3  4  1  0
  4  5  2  0
  5  6  1  0
  6  7  2  0
  7  8  1  0
  8  9  1  0
  8 10  2  0
 10  1  1  0
 10  4  1  0
 15 17  1  0
  3 11  1  0
M  CHG 1   9  -1
M  CHG 1  15   1
M  END
> <input_smiles>
CN(C)CCc1c[nH]c2cccc(O)c12

> <prot_variant_index>
1

> <minimizedAffinity>
0.00000

> <CNNscore>
0.5492038727

> <CNNaffinity>
3.2520484924

> <CNN_VS>
1.7860376835

> <CNNaffinity_variance>
0.8966824412

$$$$
Psilocin__p1


 17 18  0  0  0  0  0  0  0  0999 V2000
   -2.9477    0.9602   -1.7381 C   0  0  0  0  0  0  0  0  0  0  0  0
   -3.7544    1.7153   -2.5645 C   0  0  0  0  0  0  0  0  0  0  0  0
   -4.7931    0.9229   -2.9672 N   0  0  0  0  0  0  0  0  0  0  0  0
   -4.6786   -0.3396   -2.4338 C   0  0  0  0  0  0  0  0  0  0  0  0
   -5.5162   -1.4466   -2.5992 C   0  0  0  0  0  0  0  0  0  0  0  0
   -5.1674   -2.6158   -1.9306 C   0  0  0  0  0  0  0  0  0  0  0  0
   -4.0263   -2.6664   -1.1302 C   0  0  0  0  0  0  0  0  0  0  0  0
   -3.1687   -1.5636   -0.9492 C   0  0  0  0  0  0  0  0  0  0  0  0
   -2.1187   -1.5548   -0.2297 O   0  0  0  0  0  0  0  0  0  0  0  0
   -3.5273   -0.3617   -1.6381 C   0  0  0  0  0  0  0  0  0  0  0  0
   -5.5495    1.2114   -3.5697 H   0  0  0  0  0  0  0  0  0  0  0  0
   -1.6984    1.3991   -1.0545 C   0  0  0  0  0  0  0  0  0  0  0  0
   -0.4647    1.1481   -1.9280 C   0  0  0  0  0  0  0  0  0  0  0  0
   -0.3168    3.6228   -1.6785 C   0  0  0  0  0  0  0  0  0  0  0  0
    0.0928    2.4496   -2.5040 N   0  0  0  0  0  0  0  0  0  0  0  0
   -0.3425    2.6267   -3.9436 C   0  0  0  0  0  0  0  0  0  0  0  0
    1.1129    2.3705   -2.5064 H   0  0  0  0  0  0  0  0  0  0  0  0
 14 15  1  0
 15 16  1  0
 15 13  1  0
 13 12  1  0
 12  1  1  0
  1  2  2  0
  2  3  1  0
  3  4  1  0
  4  5  2  0
  5  6  1  0
  6  7  2  0
  7  8  1  0
  8  9  1  0
  8 10  2  0
 10  1  1  0
 10  4  1  0
 15 17  1  0
  3 11  1  0
M  CHG 1   9  -1
M  CHG 1  15   1
M  END
> <input_smiles>
CN(C)CCc1c[nH]c2cccc(O)c12

> <prot_variant_index>
1

> <minimizedAffinity>
0.00000

> <CNNscore>
0.5480317473

> <CNNaffinity>
3.1209623814

> <CNN_VS>
1.7103865147

> <CNNaffinity_variance>
0.7937783599

$$$$
Psilocin__p1


 17 18  0  0  0  0  0  0  0  0999 V2000
   -7.2155    1.8476    0.9766 C   0  0  0  0  0  0  0  0  0  0  0  0
   -8.5744    1.6203    1.0531 C   0  0  0  0  0  0  0  0  0  0  0  0
   -9.1536    2.1961   -0.0431 N   0  0  0  0  0  0  0  0  0  0  0  0
   -8.2063    2.8078   -0.8305 C   0  0  0  0  0  0  0  0  0  0  0  0
   -8.3742    3.5127   -2.0261 C   0  0  0  0  0  0  0  0  0  0  0  0
   -7.2310    4.0287   -2.6282 C   0  0  0  0  0  0  0  0  0  0  0  0
   -5.9748    3.8413   -2.0518 C   0  0  0  0  0  0  0  0  0  0  0  0
   -5.7825    3.1345   -0.8485 C   0  0  0  0  0  0  0  0  0  0  0  0
   -4.6608    2.9325   -0.2818 O   0  0  0  0  0  0  0  0  0  0  0  0
   -6.9588    2.6051   -0.2291 C   0  0  0  0  0  0  0  0  0  0  0  0
  -10.1389    2.1798   -0.2606 H   0  0  0  0  0  0  0  0  0  0  0  0
   -6.1733    1.4039    1.9449 C   0  0  0  0  0  0  0  0  0  0  0  0
   -5.9784    2.4296    3.0665 C   0  0  0  0  0  0  0  0  0  0  0  0
   -3.7930    3.4682    3.6611 C   0  0  0  0  0  0  0  0  0  0  0  0
   -4.9302    3.4785    2.6956 N   0  0  0  0  0  0  0  0  0  0  0  0
   -5.5562    4.8551    2.6165 C   0  0  0  0  0  0  0  0  0  0  0  0
   -4.5877    3.2502    1.7588 H   0  0  0  0  0  0  0  0  0  0  0  0
 14 15  1  0
 15 16  1  0
 15 13  1  0
 13 12  1  0
 12  1  1  0
  1  2  2  0
  2  3  1  0
  3  4  1  0
  4  5  2  0
  5  6  1  0
  6  7  2  0
  7  8  1  0
  8  9  1  0
  8 10  2  0
 10  1  1  0
 10  4  1  0
 15 17  1  0
  3 11  1  0
M  CHG 1   9  -1
M  CHG 1  15   1
M  END
> <input_smiles>
CN(C)CCc1c[nH]c2cccc(O)c12

> <prot_variant_index>
1

> <minimizedAffinity>
0.00000

> <CNNscore>
0.5474399328

> <CNNaffinity>
3.1298825741

> <CNN_VS>
1.7134226561

> <CNNaffinity_variance>
1.0367330313

$$$$
Psilocin__p1


 17 18  0  0  0  0  0  0  0  0999 V2000
   -5.8292    1.1755    2.4672 C   0  0  0  0  0  0  0  0  0  0  0  0
   -7.0339    1.7947    2.2045 C   0  0  0  0  0  0  0  0  0  0  0  0
   -7.9156    1.4171    3.1787 N   0  0  0  0  0  0  0  0  0  0  0  0
   -7.3196    0.5533    4.0675 C   0  0  0  0  0  0  0  0  0  0  0  0
   -7.8656   -0.0693    5.1938 C   0  0  0  0  0  0  0  0  0  0  0  0
   -7.0286   -0.8999    5.9321 C   0  0  0  0  0  0  0  0  0  0  0  0
   -5.7004   -1.0933    5.5529 C   0  0  0  0  0  0  0  0  0  0  0  0
   -5.1295   -0.4762    4.4225 C   0  0  0  0  0  0  0  0  0  0  0  0
   -3.9255   -0.6157    4.0340 O   0  0  0  0  0  0  0  0  0  0  0  0
   -5.9913    0.3771    3.6628 C   0  0  0  0  0  0  0  0  0  0  0  0
   -8.8740    1.7245    3.2514 H   0  0  0  0  0  0  0  0  0  0  0  0
   -4.5685    1.2900    1.6808 C   0  0  0  0  0  0  0  0  0  0  0  0
   -4.4948    0.2233    0.5832 C   0  0  0  0  0  0  0  0  0  0  0  0
   -4.4131    2.2841   -0.8150 C   0  0  0  0  0  0  0  0  0  0  0  0
   -4.7221    0.8246   -0.8037 N   0  0  0  0  0  0  0  0  0  0  0  0
   -6.1404    0.5714   -1.2701 C   0  0  0  0  0  0  0  0  0  0  0  0
   -4.1006    0.3368   -1.4538 H   0  0  0  0  0  0  0  0  0  0  0  0
 14 15  1  0
 15 16  1  0
 15 13  1  0
 13 12  1  0
 12  1  1  0
  1  2  2  0
  2  3  1  0
  3  4  1  0
  4  5  2  0
  5  6  1  0
  6  7  2  0
  7  8  1  0
  8  9  1  0
  8 10  2  0
 10  1  1  0
 10  4  1  0
 15 17  1  0
  3 11  1  0
M  CHG 1   9  -1
M  CHG 1  15   1
M  END
> <input_smiles>
CN(C)CCc1c[nH]c2cccc(O)c12

> <prot_variant_index>
1

> <minimizedAffinity>
0.00000

> <CNNscore>
0.5463477969

> <CNNaffinity>
3.2585470676

> <CNN_VS>
1.7803000212

> <CNNaffinity_variance>
0.7689454556

$$$$
Psilocin__p1


 17 18  0  0  0  0  0  0  0  0999 V2000
   -6.0941    0.5533    3.3964 C   0  0  0  0  0  0  0  0  0  0  0  0
   -7.2989    1.1725    3.1337 C   0  0  0  0  0  0  0  0  0  0  0  0
   -8.1805    0.7949    4.1079 N   0  0  0  0  0  0  0  0  0  0  0  0
   -7.5844   -0.0689    4.9967 C   0  0  0  0  0  0  0  0  0  0  0  0
   -8.1305   -0.6915    6.1230 C   0  0  0  0  0  0  0  0  0  0  0  0
   -7.2935   -1.5222    6.8613 C   0  0  0  0  0  0  0  0  0  0  0  0
   -5.9653   -1.7155    6.4821 C   0  0  0  0  0  0  0  0  0  0  0  0
   -5.3944   -1.0983    5.3517 C   0  0  0  0  0  0  0  0  0  0  0  0
   -4.1903   -1.2378    4.9632 O   0  0  0  0  0  0  0  0  0  0  0  0
   -6.2562   -0.2451    4.5920 C   0  0  0  0  0  0  0  0  0  0  0  0
   -9.1389    1.1023    4.1806 H   0  0  0  0  0  0  0  0  0  0  0  0
   -4.8334    0.6678    2.6100 C   0  0  0  0  0  0  0  0  0  0  0  0
   -4.7794   -0.3709    1.4848 C   0  0  0  0  0  0  0  0  0  0  0  0
   -2.9286   -2.0087    1.1682 C   0  0  0  0  0  0  0  0  0  0  0  0
   -4.1517   -1.6821    1.9574 N   0  0  0  0  0  0  0  0  0  0  0  0
   -5.1566   -2.8125    1.8846 C   0  0  0  0  0  0  0  0  0  0  0  0
   -3.9033   -1.5641    2.9430 H   0  0  0  0  0  0  0  0  0  0  0  0
 14 15  1  0
 15 16  1  0
 15 13  1  0
 13 12  1  0
 12  1  1  0
  1  2  2  0
  2  3  1  0
  3  4  1  0
  4  5  2  0
  5  6  1  0
  6  7  2  0
  7  8  1  0
  8  9  1  0
  8 10  2  0
 10  1  1  0
 10  4  1  0
 15 17  1  0
  3 11  1  0
M  CHG 1   9  -1
M  CHG 1  15   1
M  END
> <input_smiles>
CN(C)CCc1c[nH]c2cccc(O)c12

> <prot_variant_index>
1

> <minimizedAffinity>
0.00000

> <CNNscore>
0.5400754213

> <CNNaffinity>
3.2521455288

> <CNN_VS>
1.7564039230

> <CNNaffinity_variance>
1.0917997360

$$$$
Psilocin__p1


 17 18  0  0  0  0  0  0  0  0999 V2000
   -3.3754    1.2532   -3.1572 C   0  0  0  0  0  0  0  0  0  0  0  0
   -4.0324    0.5764   -4.1643 C   0  0  0  0  0  0  0  0  0  0  0  0
   -3.8074   -0.7596   -3.9816 N   0  0  0  0  0  0  0  0  0  0  0  0
   -3.0063   -0.9736   -2.8844 C   0  0  0  0  0  0  0  0  0  0  0  0
   -2.5345   -2.1799   -2.3583 C   0  0  0  0  0  0  0  0  0  0  0  0
   -1.7372   -2.1108   -1.2201 C   0  0  0  0  0  0  0  0  0  0  0  0
   -1.4305   -0.8811   -0.6378 C   0  0  0  0  0  0  0  0  0  0  0  0
   -1.8951    0.3459   -1.1507 C   0  0  0  0  0  0  0  0  0  0  0  0
   -1.6480    1.4933   -0.6582 O   0  0  0  0  0  0  0  0  0  0  0  0
   -2.7141    0.2743   -2.3220 C   0  0  0  0  0  0  0  0  0  0  0  0
   -4.1749   -1.4994   -4.5613 H   0  0  0  0  0  0  0  0  0  0  0  0
   -3.3366    2.7270   -2.9405 C   0  0  0  0  0  0  0  0  0  0  0  0
   -3.9196    3.4843   -4.1383 C   0  0  0  0  0  0  0  0  0  0  0  0
   -4.2913    5.7806   -5.0312 C   0  0  0  0  0  0  0  0  0  0  0  0
   -4.2024    4.9473   -3.7970 N   0  0  0  0  0  0  0  0  0  0  0  0
   -3.1474    5.4903   -2.8562 C   0  0  0  0  0  0  0  0  0  0  0  0
   -5.0947    4.9774   -3.2971 H   0  0  0  0  0  0  0  0  0  0  0  0
 14 15  1  0
 15 16  1  0
 15 13  1  0
 13 12  1  0
 12  1  1  0
  1  2  2  0
  2  3  1  0
  3  4  1  0
  4  5  2  0
  5  6  1  0
  6  7  2  0
  7  8  1  0
  8  9  1  0
  8 10  2  0
 10  1  1  0
 10  4  1  0
 15 17  1  0
  3 11  1  0
M  CHG 1   9  -1
M  CHG 1  15   1
M  END
> <input_smiles>
CN(C)CCc1c[nH]c2cccc(O)c12

> <prot_variant_index>
1

> <minimizedAffinity>
0.00000

> <CNNscore>
0.5395592451

> <CNNaffinity>
3.2635107040

> <CNN_VS>
1.7608573437

> <CNNaffinity_variance>
0.9508668780

$$$$
Psilocin__p1


 17 18  0  0  0  0  0  0  0  0999 V2000
   -7.7967    4.3337    2.3690 C   0  0  0  0  0  0  0  0  0  0  0  0
   -8.3616    3.2890    3.0715 C   0  0  0  0  0  0  0  0  0  0  0  0
   -7.3443    2.4994    3.5302 N   0  0  0  0  0  0  0  0  0  0  0  0
   -6.1247    2.9957    3.1330 C   0  0  0  0  0  0  0  0  0  0  0  0
   -4.8443    2.4914    3.3793 C   0  0  0  0  0  0  0  0  0  0  0  0
   -3.7676    3.2041    2.8612 C   0  0  0  0  0  0  0  0  0  0  0  0
   -3.9723    4.3734    2.1289 C   0  0  0  0  0  0  0  0  0  0  0  0
   -5.2530    4.8995    1.8690 C   0  0  0  0  0  0  0  0  0  0  0  0
   -5.4955    5.9614    1.2105 O   0  0  0  0  0  0  0  0  0  0  0  0
   -6.3601    4.1654    2.4011 C   0  0  0  0  0  0  0  0  0  0  0  0
   -7.4566    1.6660    4.0880 H   0  0  0  0  0  0  0  0  0  0  0  0
   -8.5109    5.4513    1.6897 C   0  0  0  0  0  0  0  0  0  0  0  0
   -8.7182    6.6395    2.6348 C   0  0  0  0  0  0  0  0  0  0  0  0
  -10.8665    7.8162    3.0917 C   0  0  0  0  0  0  0  0  0  0  0  0
  -10.0763    6.5741    3.3334 N   0  0  0  0  0  0  0  0  0  0  0  0
   -9.9027    6.3273    4.8173 C   0  0  0  0  0  0  0  0  0  0  0  0
  -10.5778    5.7681    2.9516 H   0  0  0  0  0  0  0  0  0  0  0  0
 14 15  1  0
 15 16  1  0
 15 13  1  0
 13 12  1  0
 12  1  1  0
  1  2  2  0
  2  3  1  0
  3  4  1  0
  4  5  2  0
  5  6  1  0
  6  7  2  0
  7  8  1  0
  8  9  1  0
  8 10  2  0
 10  1  1  0
 10  4  1  0
 15 17  1  0
  3 11  1  0
M  CHG 1   9  -1
M  CHG 1  15   1
M  END
> <input_smiles>
CN(C)CCc1c[nH]c2cccc(O)c12

> <prot_variant_index>
1

> <minimizedAffinity>
0.00000

> <CNNscore>
0.5283755660

> <CNNaffinity>
3.1301529408

> <CNN_VS>
1.6538963318

> <CNNaffinity_variance>
0.7113180757

$$$$
Psilocin__p1


 17 18  0  0  0  0  0  0  0  0999 V2000
    5.8999    5.3169    0.7792 C   0  0  0  0  0  0  0  0  0  0  0  0
    6.6153    5.1119    1.9411 C   0  0  0  0  0  0  0  0  0  0  0  0
    6.9446    3.7863    1.9971 N   0  0  0  0  0  0  0  0  0  0  0  0
    6.4497    3.1143    0.9040 C   0  0  0  0  0  0  0  0  0  0  0  0
    6.5526    1.7580    0.5811 C   0  0  0  0  0  0  0  0  0  0  0  0
    5.9591    1.3379   -0.6051 C   0  0  0  0  0  0  0  0  0  0  0  0
    5.2929    2.2446   -1.4294 C   0  0  0  0  0  0  0  0  0  0  0  0
    5.1773    3.6149   -1.1239 C   0  0  0  0  0  0  0  0  0  0  0  0
    4.5841    4.4839   -1.8404 O   0  0  0  0  0  0  0  0  0  0  0  0
    5.7869    4.0461    0.0968 C   0  0  0  0  0  0  0  0  0  0  0  0
    7.4801    3.3471    2.7310 H   0  0  0  0  0  0  0  0  0  0  0  0
    5.3337    6.6043    0.2866 C   0  0  0  0  0  0  0  0  0  0  0  0
    6.3558    7.3818   -0.5495 C   0  0  0  0  0  0  0  0  0  0  0  0
    7.5727    6.3673   -2.4726 C   0  0  0  0  0  0  0  0  0  0  0  0
    6.2925    6.9891   -2.0254 N   0  0  0  0  0  0  0  0  0  0  0  0
    5.9486    8.1887   -2.8833 C   0  0  0  0  0  0  0  0  0  0  0  0
    5.5287    6.3163   -2.1301 H   0  0  0  0  0  0  0  0  0  0  0  0
 14 15  1  0
 15 16  1  0
 15 13  1  0
 13 12  1  0
 12  1  1  0
  1  2  2  0
  2  3  1  0
  3  4  1  0
  4  5  2  0
  5  6  1  0
  6  7  2  0
  7  8  1  0
  8  9  1  0
  8 10  2  0
 10  1  1  0
 10  4  1  0
 15 17  1  0
  3 11  1  0
M  CHG 1   9  -1
M  CHG 1  15   1
M  END
> <input_smiles>
CN(C)CCc1c[nH]c2cccc(O)c12

> <prot_variant_index>
1

> <minimizedAffinity>
0.00000

> <CNNscore>
0.5260851979

> <CNNaffinity>
3.1088497639

> <CNN_VS>
1.6355198622

> <CNNaffinity_variance>
0.7255548835

$$$$
Psilocin__p1


 17 18  0  0  0  0  0  0  0  0999 V2000
   -2.5726   -0.2446   -2.6054 C   0  0  0  0  0  0  0  0  0  0  0  0
   -3.8180   -0.2874   -3.1982 C   0  0  0  0  0  0  0  0  0  0  0  0
   -4.2450   -1.5858   -3.1730 N   0  0  0  0  0  0  0  0  0  0  0  0
   -3.3015   -2.3981   -2.5887 C   0  0  0  0  0  0  0  0  0  0  0  0
   -3.3372   -3.7792   -2.3744 C   0  0  0  0  0  0  0  0  0  0  0  0
   -2.2379   -4.3557   -1.7459 C   0  0  0  0  0  0  0  0  0  0  0  0
   -1.1521   -3.5749   -1.3500 C   0  0  0  0  0  0  0  0  0  0  0  0
   -1.0952   -2.1824   -1.5555 C   0  0  0  0  0  0  0  0  0  0  0  0
   -0.1323   -1.4240   -1.2124 O   0  0  0  0  0  0  0  0  0  0  0  0
   -2.2256   -1.5903   -2.2030 C   0  0  0  0  0  0  0  0  0  0  0  0
   -5.1298   -1.9176   -3.5271 H   0  0  0  0  0  0  0  0  0  0  0  0
   -1.7150    0.9566   -2.3999 C   0  0  0  0  0  0  0  0  0  0  0  0
   -0.8153    1.2161   -3.6129 C   0  0  0  0  0  0  0  0  0  0  0  0
    1.6658    1.4196   -3.5084 C   0  0  0  0  0  0  0  0  0  0  0  0
    0.5144    0.4710   -3.4984 N   0  0  0  0  0  0  0  0  0  0  0  0
    0.6508   -0.5522   -4.6064 C   0  0  0  0  0  0  0  0  0  0  0  0
    0.5011   -0.0438   -2.6142 H   0  0  0  0  0  0  0  0  0  0  0  0
 14 15  1  0
 15 16  1  0
 15 13  1  0
 13 12  1  0
 12  1  1  0
  1  2  2  0
  2  3  1  0
  3  4  1  0
  4  5  2  0
  5  6  1  0
  6  7  2  0
  7  8  1  0
  8  9  1  0
  8 10  2  0
 10  1  1  0
 10  4  1  0
 15 17  1  0
  3 11  1  0
M  CHG 1   9  -1
M  CHG 1  15   1
M  END
> <input_smiles>
CN(C)CCc1c[nH]c2cccc(O)c12

> <prot_variant_index>
1

> <minimizedAffinity>
0.00000

> <CNNscore>
0.5236279964

> <CNNaffinity>
3.0770092010

> <CNN_VS>
1.6112082005

> <CNNaffinity_variance>
0.8088707328

$$$$
Psilocin__p2


 16 17  0  0  0  0  0  0  0  0999 V2000
   -4.3010    1.3699   -2.9464 C   0  0  0  0  0  0  0  0  0  0  0  0
   -4.3877    0.8174   -4.2113 C   0  0  0  0  0  0  0  0  0  0  0  0
   -5.6837    0.9085   -4.6216 N   0  0  0  0  0  0  0  0  0  0  0  0
   -6.4664    1.4819   -3.6490 C   0  0  0  0  0  0  0  0  0  0  0  0
   -7.8405    1.7451   -3.6717 C   0  0  0  0  0  0  0  0  0  0  0  0
   -8.4004    2.3235   -2.5386 C   0  0  0  0  0  0  0  0  0  0  0  0
   -7.6095    2.6159   -1.4296 C   0  0  0  0  0  0  0  0  0  0  0  0
   -6.2237    2.3582   -1.3834 C   0  0  0  0  0  0  0  0  0  0  0  0
   -5.4710    2.5957   -0.3852 O   0  0  0  0  0  0  0  0  0  0  0  0
   -5.6388    1.7763   -2.5548 C   0  0  0  0  0  0  0  0  0  0  0  0
   -6.0360    0.5912   -5.5104 H   0  0  0  0  0  0  0  0  0  0  0  0
   -3.0510    1.4776   -2.1274 C   0  0  0  0  0  0  0  0  0  0  0  0
   -2.7960    0.3226   -1.1336 C   0  0  0  0  0  0  0  0  0  0  0  0
   -2.0663   -0.4707    1.0739 C   0  0  0  0  0  0  0  0  0  0  0  0
   -2.7180    0.5926    0.3258 N   0  0  0  0  0  0  0  0  0  0  0  0
   -2.1059    1.8902    0.5948 C   0  0  0  0  0  0  0  0  0  0  0  0
 14 15  1  0
 15 16  1  0
 15 13  1  0
 13 12  1  0
 12  1  1  0
  1  2  2  0
  2  3  1  0
  3  4  1  0
  4  5  2  0
  5  6  1  0
  6  7  2  0
  7  8  1  0
  8  9  1  0
  8 10  2  0
 10  1  1  0
 10  4  1  0
  3 11  1  0
M  CHG 1   9  -1
M  END
> <input_smiles>
CN(C)CCc1c[nH]c2cccc(O)c12

> <prot_variant_index>
2

> <minimizedAffinity>
0.00000

> <CNNscore>
0.8651571870

> <CNNaffinity>
3.7720706463

> <CNN_VS>
3.2634339333

> <CNNaffinity_variance>
1.3812962770

$$$$
Psilocin__p2


 16 17  0  0  0  0  0  0  0  0999 V2000
   -1.9290    5.3169   -3.1315 C   0  0  0  0  0  0  0  0  0  0  0  0
   -2.8066    6.3332   -3.4630 C   0  0  0  0  0  0  0  0  0  0  0  0
   -2.1658    7.5204   -3.2724 N   0  0  0  0  0  0  0  0  0  0  0  0
   -0.8935    7.3192   -2.7947 C   0  0  0  0  0  0  0  0  0  0  0  0
    0.0791    8.2693   -2.4640 C   0  0  0  0  0  0  0  0  0  0  0  0
    1.2945    7.7996   -1.9801 C   0  0  0  0  0  0  0  0  0  0  0  0
    1.5149    6.4323   -1.8297 C   0  0  0  0  0  0  0  0  0  0  0  0
    0.5494    5.4570   -2.1547 C   0  0  0  0  0  0  0  0  0  0  0  0
    0.7063    4.2017   -2.0169 O   0  0  0  0  0  0  0  0  0  0  0  0
   -0.6996    5.9353   -2.6687 C   0  0  0  0  0  0  0  0  0  0  0  0
   -2.5637    8.4299   -3.4429 H   0  0  0  0  0  0  0  0  0  0  0  0
   -2.2292    3.8507   -3.2007 C   0  0  0  0  0  0  0  0  0  0  0  0
   -3.3765    3.4427   -4.1515 C   0  0  0  0  0  0  0  0  0  0  0  0
   -3.4321    1.8396   -6.0121 C   0  0  0  0  0  0  0  0  0  0  0  0
   -3.1043    3.1924   -5.5910 N   0  0  0  0  0  0  0  0  0  0  0  0
   -3.7541    4.1892   -6.4364 C   0  0  0  0  0  0  0  0  0  0  0  0
 14 15  1  0
 15 16  1  0
 15 13  1  0
 13 12  1  0
 12  1  1  0
  1  2  2  0
  2  3  1  0
  3  4  1  0
  4  5  2  0
  5  6  1  0
  6  7  2  0
  7  8  1  0
  8  9  1  0
  8 10  2  0
 10  1  1  0
 10  4  1  0
  3 11  1  0
M  CHG 1   9  -1
M  END
> <input_smiles>
CN(C)CCc1c[nH]c2cccc(O)c12

> <prot_variant_index>
2

> <minimizedAffinity>
0.00000

> <CNNscore>
0.8619579673

> <CNNaffinity>
3.8817374706

> <CNN_VS>
3.3458945751

> <CNNaffinity_variance>
1.2101162672

$$$$
Psilocin__p2


 16 17  0  0  0  0  0  0  0  0999 V2000
   -2.6451    4.2947   -3.8145 C   0  0  0  0  0  0  0  0  0  0  0  0
   -3.9988    4.0112   -3.8191 C   0  0  0  0  0  0  0  0  0  0  0  0
   -4.6587    5.1197   -4.2573 N   0  0  0  0  0  0  0  0  0  0  0  0
   -3.7793    6.1429   -4.5166 C   0  0  0  0  0  0  0  0  0  0  0  0
   -4.0508    7.4380   -4.9716 C   0  0  0  0  0  0  0  0  0  0  0  0
   -2.9711    8.2971   -5.1393 C   0  0  0  0  0  0  0  0  0  0  0  0
   -1.6764    7.8699   -4.8532 C   0  0  0  0  0  0  0  0  0  0  0  0
   -1.3790    6.5706   -4.3922 C   0  0  0  0  0  0  0  0  0  0  0  0
   -0.2136    6.1479   -4.1052 O   0  0  0  0  0  0  0  0  0  0  0  0
   -2.4869    5.6761   -4.2325 C   0  0  0  0  0  0  0  0  0  0  0  0
   -5.6569    5.1962   -4.3688 H   0  0  0  0  0  0  0  0  0  0  0  0
   -1.5589    3.3477   -3.4044 C   0  0  0  0  0  0  0  0  0  0  0  0
   -2.0287    1.9914   -2.8331 C   0  0  0  0  0  0  0  0  0  0  0  0
   -3.2154    2.0490   -0.6829 C   0  0  0  0  0  0  0  0  0  0  0  0
   -1.9730    1.7343   -1.3703 N   0  0  0  0  0  0  0  0  0  0  0  0
   -1.5335    0.3717   -1.0861 C   0  0  0  0  0  0  0  0  0  0  0  0
 14 15  1  0
 15 16  1  0
 15 13  1  0
 13 12  1  0
 12  1  1  0
  1  2  2  0
  2  3  1  0
  3  4  1  0
  4  5  2  0
  5  6  1  0
  6  7  2  0
  7  8  1  0
  8  9  1  0
  8 10  2  0
 10  1  1  0
 10  4  1  0
  3 11  1  0
M  CHG 1   9  -1
M  END
> <input_smiles>
CN(C)CCc1c[nH]c2cccc(O)c12

> <prot_variant_index>
2

> <minimizedAffinity>
0.00000

> <CNNscore>
0.8532284498

> <CNNaffinity>
3.8539302349

> <CNN_VS>
3.2882828712

> <CNNaffinity_variance>
1.5924819708

$$$$
Psilocin__p2


 16 17  0  0  0  0  0  0  0  0999 V2000
   -0.0006    2.2181   -1.5416 C   0  0  0  0  0  0  0  0  0  0  0  0
    1.0931    2.0290   -2.3668 C   0  0  0  0  0  0  0  0  0  0  0  0
    2.1126    2.8006   -1.8964 N   0  0  0  0  0  0  0  0  0  0  0  0
    1.7150    3.5201   -0.7957 C   0  0  0  0  0  0  0  0  0  0  0  0
    2.4531    4.4282   -0.0285 C   0  0  0  0  0  0  0  0  0  0  0  0
    1.8044    5.0423    1.0363 C   0  0  0  0  0  0  0  0  0  0  0  0
    0.4682    4.7580    1.3093 C   0  0  0  0  0  0  0  0  0  0  0  0
   -0.2957    3.8483    0.5493 C   0  0  0  0  0  0  0  0  0  0  0  0
   -1.5209    3.5739    0.7565 O   0  0  0  0  0  0  0  0  0  0  0  0
    0.3729    3.2007   -0.5400 C   0  0  0  0  0  0  0  0  0  0  0  0
    3.0345    2.8548   -2.2990 H   0  0  0  0  0  0  0  0  0  0  0  0
   -1.3345    1.5540   -1.6985 C   0  0  0  0  0  0  0  0  0  0  0  0
   -1.5993    0.8911   -3.0685 C   0  0  0  0  0  0  0  0  0  0  0  0
   -4.0392    0.9838   -3.3390 C   0  0  0  0  0  0  0  0  0  0  0  0
   -2.8576    0.1366   -3.3057 N   0  0  0  0  0  0  0  0  0  0  0  0
   -2.7614   -0.6962   -4.5006 C   0  0  0  0  0  0  0  0  0  0  0  0
 14 15  1  0
 15 16  1  0
 15 13  1  0
 13 12  1  0
 12  1  1  0
  1  2  2  0
  2  3  1  0
  3  4  1  0
  4  5  2  0
  5  6  1  0
  6  7  2  0
  7  8  1  0
  8  9  1  0
  8 10  2  0
 10  1  1  0
 10  4  1  0
  3 11  1  0
M  CHG 1   9  -1
M  END
> <input_smiles>
CN(C)CCc1c[nH]c2cccc(O)c12

> <prot_variant_index>
2

> <minimizedAffinity>
0.00000

> <CNNscore>
0.8452432156

> <CNNaffinity>
3.8066966534

> <CNN_VS>
3.2175846100

> <CNNaffinity_variance>
1.0670343637

$$$$
Psilocin__p2


 16 17  0  0  0  0  0  0  0  0999 V2000
   -1.5024    6.2235   -1.7088 C   0  0  0  0  0  0  0  0  0  0  0  0
   -2.7016    6.7921   -1.3194 C   0  0  0  0  0  0  0  0  0  0  0  0
   -2.4259    7.7839   -0.4269 N   0  0  0  0  0  0  0  0  0  0  0  0
   -1.0751    7.8697   -0.1914 C   0  0  0  0  0  0  0  0  0  0  0  0
   -0.3871    8.7432    0.6581 C   0  0  0  0  0  0  0  0  0  0  0  0
    0.9946    8.6111    0.7293 C   0  0  0  0  0  0  0  0  0  0  0  0
    1.6512    7.6356   -0.0178 C   0  0  0  0  0  0  0  0  0  0  0  0
    0.9789    6.7436   -0.8788 C   0  0  0  0  0  0  0  0  0  0  0  0
    1.5399    5.8303   -1.5646 O   0  0  0  0  0  0  0  0  0  0  0  0
   -0.4441    6.8860   -0.9677 C   0  0  0  0  0  0  0  0  0  0  0  0
   -3.1113    8.3738    0.0170 H   0  0  0  0  0  0  0  0  0  0  0  0
   -1.3495    5.0976   -2.6854 C   0  0  0  0  0  0  0  0  0  0  0  0
   -1.2775    3.6809   -2.0733 C   0  0  0  0  0  0  0  0  0  0  0  0
   -2.4598    2.6686   -0.1728 C   0  0  0  0  0  0  0  0  0  0  0  0
   -1.3430    3.4964   -0.6001 N   0  0  0  0  0  0  0  0  0  0  0  0
   -0.0761    3.0030   -0.0689 C   0  0  0  0  0  0  0  0  0  0  0  0
 14 15  1  0
 15 16  1  0
 15 13  1  0
 13 12  1  0
 12  1  1  0
  1  2  2  0
  2  3  1  0
  3  4  1  0
  4  5  2  0
  5  6  1  0
  6  7  2  0
  7  8  1  0
  8  9  1  0
  8 10  2  0
 10  1  1  0
 10  4  1  0
  3 11  1  0
M  CHG 1   9  -1
M  END
> <input_smiles>
CN(C)CCc1c[nH]c2cccc(O)c12

> <prot_variant_index>
2

> <minimizedAffinity>
0.00000

> <CNNscore>
0.8430387974

> <CNNaffinity>
3.7809555531

> <CNN_VS>
3.1874921322

> <CNNaffinity_variance>
2.0170052052

$$$$
Psilocin__p2


 16 17  0  0  0  0  0  0  0  0999 V2000
   -2.9691   -1.1903   -1.1667 C   0  0  0  0  0  0  0  0  0  0  0  0
   -3.2198   -2.1734   -2.1067 C   0  0  0  0  0  0  0  0  0  0  0  0
   -4.5512   -2.1492   -2.3950 N   0  0  0  0  0  0  0  0  0  0  0  0
   -5.1969   -1.1936   -1.6485 C   0  0  0  0  0  0  0  0  0  0  0  0
   -6.5553   -0.8579   -1.6398 C   0  0  0  0  0  0  0  0  0  0  0  0
   -6.9610    0.1467   -0.7693 C   0  0  0  0  0  0  0  0  0  0  0  0
   -6.0376    0.7787    0.0607 C   0  0  0  0  0  0  0  0  0  0  0  0
   -4.6647    0.4562    0.0704 C   0  0  0  0  0  0  0  0  0  0  0  0
   -3.7939    0.9983    0.8234 O   0  0  0  0  0  0  0  0  0  0  0  0
   -4.2387   -0.5681   -0.8364 C   0  0  0  0  0  0  0  0  0  0  0  0
   -5.0144   -2.7531   -3.0550 H   0  0  0  0  0  0  0  0  0  0  0  0
   -1.6296   -0.8727   -0.5755 C   0  0  0  0  0  0  0  0  0  0  0  0
   -1.3029   -1.5693    0.7641 C   0  0  0  0  0  0  0  0  0  0  0  0
   -1.7954   -3.8342    1.5782 C   0  0  0  0  0  0  0  0  0  0  0  0
   -2.2927   -2.4796    1.3969 N   0  0  0  0  0  0  0  0  0  0  0  0
   -2.8034   -1.9243    2.6465 C   0  0  0  0  0  0  0  0  0  0  0  0
 14 15  1  0
 15 16  1  0
 15 13  1  0
 13 12  1  0
 12  1  1  0
  1  2  2  0
  2  3  1  0
  3  4  1  0
  4  5  2  0
  5  6  1  0
  6  7  2  0
  7  8  1  0
  8  9  1  0
  8 10  2  0
 10  1  1  0
 10  4  1  0
  3 11  1  0
M  CHG 1   9  -1
M  END
> <input_smiles>
CN(C)CCc1c[nH]c2cccc(O)c12

> <prot_variant_index>
2

> <minimizedAffinity>
0.00000

> <CNNscore>
0.8354573250

> <CNNaffinity>
3.6788332462

> <CNN_VS>
3.0735082626

> <CNNaffinity_variance>
2.0197498798

$$$$
Psilocin__p2


 16 17  0  0  0  0  0  0  0  0999 V2000
    2.4064    5.4030    2.9401 C   0  0  0  0  0  0  0  0  0  0  0  0
    2.3989    6.7790    3.0796 C   0  0  0  0  0  0  0  0  0  0  0  0
    2.8966    7.3201    1.9326 N   0  0  0  0  0  0  0  0  0  0  0  0
    3.2618    6.3370    1.0451 C   0  0  0  0  0  0  0  0  0  0  0  0
    3.8178    6.4712   -0.2319 C   0  0  0  0  0  0  0  0  0  0  0  0
    4.1152    5.3046   -0.9265 C   0  0  0  0  0  0  0  0  0  0  0  0
    3.8693    4.0585   -0.3540 C   0  0  0  0  0  0  0  0  0  0  0  0
    3.3115    3.8989    0.9314 C   0  0  0  0  0  0  0  0  0  0  0  0
    3.0867    2.7802    1.4947 O   0  0  0  0  0  0  0  0  0  0  0  0
    2.9886    5.0985    1.6454 C   0  0  0  0  0  0  0  0  0  0  0  0
    2.9997    8.3057    1.7515 H   0  0  0  0  0  0  0  0  0  0  0  0
    1.9369    4.4212    3.9700 C   0  0  0  0  0  0  0  0  0  0  0  0
    3.0272    3.8559    4.9073 C   0  0  0  0  0  0  0  0  0  0  0  0
    4.9906    4.9136    5.9374 C   0  0  0  0  0  0  0  0  0  0  0  0
    4.4437    4.2772    4.7496 N   0  0  0  0  0  0  0  0  0  0  0  0
    5.2815    3.1692    4.3013 C   0  0  0  0  0  0  0  0  0  0  0  0
 14 15  1  0
 15 16  1  0
 15 13  1  0
 13 12  1  0
 12  1  1  0
  1  2  2  0
  2  3  1  0
  3  4  1  0
  4  5  2  0
  5  6  1  0
  6  7  2  0
  7  8  1  0
  8  9  1  0
  8 10  2  0
 10  1  1  0
 10  4  1  0
  3 11  1  0
M  CHG 1   9  -1
M  END
> <input_smiles>
CN(C)CCc1c[nH]c2cccc(O)c12

> <prot_variant_index>
2

> <minimizedAffinity>
0.00000

> <CNNscore>
0.8336379528

> <CNNaffinity>
3.7375125885

> <CNN_VS>
3.1157324314

> <CNNaffinity_variance>
2.1063549519

$$$$
Psilocin__p2


 16 17  0  0  0  0  0  0  0  0999 V2000
   -2.5726   -0.2446   -2.6054 C   0  0  0  0  0  0  0  0  0  0  0  0
   -2.7995   -0.5393   -3.9376 C   0  0  0  0  0  0  0  0  0  0  0  0
   -3.9612   -1.2462   -4.0195 N   0  0  0  0  0  0  0  0  0  0  0  0
   -4.4975   -1.4538   -2.7718 C   0  0  0  0  0  0  0  0  0  0  0  0
   -5.6686   -2.1358   -2.4234 C   0  0  0  0  0  0  0  0  0  0  0  0
   -5.9832   -2.2188   -1.0721 C   0  0  0  0  0  0  0  0  0  0  0  0
   -5.1485   -1.6455   -0.1152 C   0  0  0  0  0  0  0  0  0  0  0  0
   -3.9631   -0.9552   -0.4426 C   0  0  0  0  0  0  0  0  0  0  0  0
   -3.1673   -0.4323    0.4016 O   0  0  0  0  0  0  0  0  0  0  0  0
   -3.6424   -0.8534   -1.8353 C   0  0  0  0  0  0  0  0  0  0  0  0
   -4.3756   -1.5872   -4.8720 H   0  0  0  0  0  0  0  0  0  0  0  0
   -1.4037    0.5253   -2.0711 C   0  0  0  0  0  0  0  0  0  0  0  0
   -0.2008   -0.3203   -1.5970 C   0  0  0  0  0  0  0  0  0  0  0  0
    0.7988   -2.3739   -2.5018 C   0  0  0  0  0  0  0  0  0  0  0  0
   -0.2510   -1.8038   -1.6723 N   0  0  0  0  0  0  0  0  0  0  0  0
   -0.2680   -2.4037   -0.3417 C   0  0  0  0  0  0  0  0  0  0  0  0
 14 15  1  0
 15 16  1  0
 15 13  1  0
 13 12  1  0
 12  1  1  0
  1  2  2  0
  2  3  1  0
  3  4  1  0
  4  5  2  0
  5  6  1  0
  6  7  2  0
  7  8  1  0
  8  9  1  0
  8 10  2  0
 10  1  1  0
 10  4  1  0
  3 11  1  0
M  CHG 1   9  -1
M  END
> <input_smiles>
CN(C)CCc1c[nH]c2cccc(O)c12

> <prot_variant_index>
2

> <minimizedAffinity>
0.00000

> <CNNscore>
0.8277689219

> <CNNaffinity>
3.7440860271

> <CNN_VS>
3.0992381573

> <CNNaffinity_variance>
1.9470099211

$$$$
Psilocin__p2


 16 17  0  0  0  0  0  0  0  0999 V2000
   -2.2801    1.8374   -1.2526 C   0  0  0  0  0  0  0  0  0  0  0  0
   -2.6683    1.8876   -2.5792 C   0  0  0  0  0  0  0  0  0  0  0  0
   -1.8251    2.7359   -3.2317 N   0  0  0  0  0  0  0  0  0  0  0  0
   -0.9038    3.2732   -2.3658 C   0  0  0  0  0  0  0  0  0  0  0  0
    0.1225    4.1860   -2.6333 C   0  0  0  0  0  0  0  0  0  0  0  0
    0.9151    4.5893   -1.5652 C   0  0  0  0  0  0  0  0  0  0  0  0
    0.6772    4.0987   -0.2832 C   0  0  0  0  0  0  0  0  0  0  0  0
   -0.3518    3.1800    0.0104 C   0  0  0  0  0  0  0  0  0  0  0  0
   -0.6108    2.7213    1.1687 O   0  0  0  0  0  0  0  0  0  0  0  0
   -1.1619    2.7491   -1.0901 C   0  0  0  0  0  0  0  0  0  0  0  0
   -1.8681    2.9574   -4.2135 H   0  0  0  0  0  0  0  0  0  0  0  0
   -2.9377    1.0189   -0.1838 C   0  0  0  0  0  0  0  0  0  0  0  0
   -3.9377    1.7723    0.7214 C   0  0  0  0  0  0  0  0  0  0  0  0
   -5.6103    3.2077   -0.3635 C   0  0  0  0  0  0  0  0  0  0  0  0
   -4.3621    3.1553    0.3811 N   0  0  0  0  0  0  0  0  0  0  0  0
   -4.4098    4.0042    1.5676 C   0  0  0  0  0  0  0  0  0  0  0  0
 14 15  1  0
 15 16  1  0
 15 13  1  0
 13 12  1  0
 12  1  1  0
  1  2  2  0
  2  3  1  0
  3  4  1  0
  4  5  2  0
  5  6  1  0
  6  7  2  0
  7  8  1  0
  8  9  1  0
  8 10  2  0
 10  1  1  0
 10  4  1  0
  3 11  1  0
M  CHG 1   9  -1
M  END
> <input_smiles>
CN(C)CCc1c[nH]c2cccc(O)c12

> <prot_variant_index>
2

> <minimizedAffinity>
0.00000

> <CNNscore>
0.8232184649

> <CNNaffinity>
3.7830915451

> <CNN_VS>
3.1143107414

> <CNNaffinity_variance>
2.0582501888

$$$$
Psilocin__p2


 16 17  0  0  0  0  0  0  0  0999 V2000
   -1.1820    2.9196   -2.1526 C   0  0  0  0  0  0  0  0  0  0  0  0
   -1.5702    2.9699   -3.4791 C   0  0  0  0  0  0  0  0  0  0  0  0
   -0.7270    3.8181   -4.1316 N   0  0  0  0  0  0  0  0  0  0  0  0
    0.1943    4.3555   -3.2657 C   0  0  0  0  0  0  0  0  0  0  0  0
    1.2206    5.2682   -3.5333 C   0  0  0  0  0  0  0  0  0  0  0  0
    2.0132    5.6715   -2.4651 C   0  0  0  0  0  0  0  0  0  0  0  0
    1.7753    5.1810   -1.1831 C   0  0  0  0  0  0  0  0  0  0  0  0
    0.7463    4.2622   -0.8895 C   0  0  0  0  0  0  0  0  0  0  0  0
    0.4873    3.8036    0.2688 O   0  0  0  0  0  0  0  0  0  0  0  0
   -0.0638    3.8313   -1.9900 C   0  0  0  0  0  0  0  0  0  0  0  0
   -0.7700    4.0396   -5.1134 H   0  0  0  0  0  0  0  0  0  0  0  0
   -1.8396    2.1012   -1.0837 C   0  0  0  0  0  0  0  0  0  0  0  0
   -2.9124    2.8287   -0.2432 C   0  0  0  0  0  0  0  0  0  0  0  0
   -4.6286    4.4684   -0.8763 C   0  0  0  0  0  0  0  0  0  0  0  0
   -3.2369    4.2538   -0.5126 N   0  0  0  0  0  0  0  0  0  0  0  0
   -2.8352    5.1103    0.5990 C   0  0  0  0  0  0  0  0  0  0  0  0
 14 15  1  0
 15 16  1  0
 15 13  1  0
 13 12  1  0
 12  1  1  0
  1  2  2  0
  2  3  1  0
  3  4  1  0
  4  5  2  0
  5  6  1  0
  6  7  2  0
  7  8  1  0
  8  9  1  0
  8 10  2  0
 10  1  1  0
 10  4  1  0
  3 11  1  0
M  CHG 1   9  -1
M  END
> <input_smiles>
CN(C)CCc1c[nH]c2cccc(O)c12

> <prot_variant_index>
2

> <minimizedAffinity>
0.00000

> <CNNscore>
0.8175895214

> <CNNaffinity>
3.7763235569

> <CNN_VS>
3.0874824524

> <CNNaffinity_variance>
2.0470654964

$$$$
Psilocin__p2


 16 17  0  0  0  0  0  0  0  0999 V2000
   -1.2125    5.4696   -2.2084 C   0  0  0  0  0  0  0  0  0  0  0  0
   -2.5662    5.1861   -2.2130 C   0  0  0  0  0  0  0  0  0  0  0  0
   -3.2260    6.2946   -2.6512 N   0  0  0  0  0  0  0  0  0  0  0  0
   -2.3466    7.3178   -2.9106 C   0  0  0  0  0  0  0  0  0  0  0  0
   -2.6182    8.6129   -3.3655 C   0  0  0  0  0  0  0  0  0  0  0  0
   -1.5385    9.4720   -3.5333 C   0  0  0  0  0  0  0  0  0  0  0  0
   -0.2437    9.0447   -3.2471 C   0  0  0  0  0  0  0  0  0  0  0  0
    0.0536    7.7455   -2.7861 C   0  0  0  0  0  0  0  0  0  0  0  0
    1.2190    7.3228   -2.4991 O   0  0  0  0  0  0  0  0  0  0  0  0
   -1.0543    6.8510   -2.6264 C   0  0  0  0  0  0  0  0  0  0  0  0
   -4.2243    6.3711   -2.7627 H   0  0  0  0  0  0  0  0  0  0  0  0
   -0.1263    4.5226   -1.7984 C   0  0  0  0  0  0  0  0  0  0  0  0
    0.0235    4.2875   -0.2788 C   0  0  0  0  0  0  0  0  0  0  0  0
    2.4104    4.8667   -0.2332 C   0  0  0  0  0  0  0  0  0  0  0  0
    1.1394    4.9205    0.4715 N   0  0  0  0  0  0  0  0  0  0  0  0
    0.8055    6.2841    0.8714 C   0  0  0  0  0  0  0  0  0  0  0  0
 14 15  1  0
 15 16  1  0
 15 13  1  0
 13 12  1  0
 12  1  1  0
  1  2  2  0
  2  3  1  0
  3  4  1  0
  4  5  2  0
  5  6  1  0
  6  7  2  0
  7  8  1  0
  8  9  1  0
  8 10  2  0
 10  1  1  0
 10  4  1  0
  3 11  1  0
M  CHG 1   9  -1
M  END
> <input_smiles>
CN(C)CCc1c[nH]c2cccc(O)c12

> <prot_variant_index>
2

> <minimizedAffinity>
0.00000

> <CNNscore>
0.8160970807

> <CNNaffinity>
3.6625316143

> <CNN_VS>
2.9889812469

> <CNNaffinity_variance>
1.8164000511

$$$$
Psilocin__p2


 16 17  0  0  0  0  0  0  0  0999 V2000
   -2.2801    5.7436   -1.2526 C   0  0  0  0  0  0  0  0  0  0  0  0
   -3.0534    5.1610   -0.2649 C   0  0  0  0  0  0  0  0  0  0  0  0
   -2.2531    4.9293    0.8131 N   0  0  0  0  0  0  0  0  0  0  0  0
   -0.9604    5.3170    0.5560 C   0  0  0  0  0  0  0  0  0  0  0  0
    0.1600    5.2412    1.3909 C   0  0  0  0  0  0  0  0  0  0  0  0
    1.3715    5.6906    0.8789 C   0  0  0  0  0  0  0  0  0  0  0  0
    1.4494    6.1871   -0.4204 C   0  0  0  0  0  0  0  0  0  0  0  0
    0.3346    6.2715   -1.2801 C   0  0  0  0  0  0  0  0  0  0  0  0
    0.3679    6.7033   -2.4767 O   0  0  0  0  0  0  0  0  0  0  0  0
   -0.9197    5.8239   -0.7517 C   0  0  0  0  0  0  0  0  0  0  0  0
   -2.5532    4.5186    1.6826 H   0  0  0  0  0  0  0  0  0  0  0  0
   -2.7684    6.1654   -2.6048 C   0  0  0  0  0  0  0  0  0  0  0  0
   -2.5955    5.1282   -3.7366 C   0  0  0  0  0  0  0  0  0  0  0  0
   -2.8138    2.6814   -3.7590 C   0  0  0  0  0  0  0  0  0  0  0  0
   -1.9547    3.8161   -3.4597 N   0  0  0  0  0  0  0  0  0  0  0  0
   -0.6634    3.7025   -4.1308 C   0  0  0  0  0  0  0  0  0  0  0  0
 14 15  1  0
 15 16  1  0
 15 13  1  0
 13 12  1  0
 12  1  1  0
  1  2  2  0
  2  3  1  0
  3  4  1  0
  4  5  2  0
  5  6  1  0
  6  7  2  0
  7  8  1  0
  8  9  1  0
  8 10  2  0
 10  1  1  0
 10  4  1  0
  3 11  1  0
M  CHG 1   9  -1
M  END
> <input_smiles>
CN(C)CCc1c[nH]c2cccc(O)c12

> <prot_variant_index>
2

> <minimizedAffinity>
0.00000

> <CNNscore>
0.8144312501

> <CNNaffinity>
3.7437295914

> <CNN_VS>
3.0490102768

> <CNNaffinity_variance>
2.0048754215

$$$$
Psilocin__p2


 16 17  0  0  0  0  0  0  0  0999 V2000
   -3.3754    1.2532   -3.1572 C   0  0  0  0  0  0  0  0  0  0  0  0
   -2.7811    0.8554   -4.3411 C   0  0  0  0  0  0  0  0  0  0  0  0
   -3.3296   -0.3369   -4.7066 N   0  0  0  0  0  0  0  0  0  0  0  0
   -4.2533   -0.7560   -3.7800 C   0  0  0  0  0  0  0  0  0  0  0  0
   -5.0271   -1.9218   -3.7789 C   0  0  0  0  0  0  0  0  0  0  0  0
   -5.8841   -2.1203   -2.7028 C   0  0  0  0  0  0  0  0  0  0  0  0
   -5.9510   -1.1871   -1.6705 C   0  0  0  0  0  0  0  0  0  0  0  0
   -5.1798   -0.0065   -1.6494 C   0  0  0  0  0  0  0  0  0  0  0  0
   -5.2006    0.8612   -0.7188 O   0  0  0  0  0  0  0  0  0  0  0  0
   -4.3062    0.2105   -2.7642 C   0  0  0  0  0  0  0  0  0  0  0  0
   -3.0904   -0.8574   -5.5352 H   0  0  0  0  0  0  0  0  0  0  0  0
   -3.0663    2.5137   -2.4087 C   0  0  0  0  0  0  0  0  0  0  0  0
   -1.9762    2.3998   -1.3199 C   0  0  0  0  0  0  0  0  0  0  0  0
    0.2323    3.4059   -0.9390 C   0  0  0  0  0  0  0  0  0  0  0  0
   -0.5378    2.4295   -1.6930 N   0  0  0  0  0  0  0  0  0  0  0  0
    0.0595    1.0999   -1.6152 C   0  0  0  0  0  0  0  0  0  0  0  0
 14 15  1  0
 15 16  1  0
 15 13  1  0
 13 12  1  0
 12  1  1  0
  1  2  2  0
  2  3  1  0
  3  4  1  0
  4  5  2  0
  5  6  1  0
  6  7  2  0
  7  8  1  0
  8  9  1  0
  8 10  2  0
 10  1  1  0
 10  4  1  0
  3 11  1  0
M  CHG 1   9  -1
M  END
> <input_smiles>
CN(C)CCc1c[nH]c2cccc(O)c12

> <prot_variant_index>
2

> <minimizedAffinity>
0.00000

> <CNNscore>
0.8134412169

> <CNNaffinity>
3.6613254547

> <CNN_VS>
2.9782729149

> <CNNaffinity_variance>
1.5129617453

$$$$
Psilocin__p2


 16 17  0  0  0  0  0  0  0  0999 V2000
   -1.9290    5.3169   -3.1315 C   0  0  0  0  0  0  0  0  0  0  0  0
   -2.8066    6.3332   -3.4630 C   0  0  0  0  0  0  0  0  0  0  0  0
   -2.1658    7.5204   -3.2724 N   0  0  0  0  0  0  0  0  0  0  0  0
   -0.8935    7.3192   -2.7947 C   0  0  0  0  0  0  0  0  0  0  0  0
    0.0791    8.2693   -2.4640 C   0  0  0  0  0  0  0  0  0  0  0  0
    1.2945    7.7996   -1.9801 C   0  0  0  0  0  0  0  0  0  0  0  0
    1.5149    6.4323   -1.8297 C   0  0  0  0  0  0  0  0  0  0  0  0
    0.5494    5.4570   -2.1547 C   0  0  0  0  0  0  0  0  0  0  0  0
    0.7063    4.2017   -2.0169 O   0  0  0  0  0  0  0  0  0  0  0  0
   -0.6996    5.9353   -2.6687 C   0  0  0  0  0  0  0  0  0  0  0  0
   -2.5637    8.4299   -3.4429 H   0  0  0  0  0  0  0  0  0  0  0  0
   -2.2292    3.8507   -3.2007 C   0  0  0  0  0  0  0  0  0  0  0  0
   -2.7279    3.2031   -1.8898 C   0  0  0  0  0  0  0  0  0  0  0  0
   -4.2248    4.0428   -0.1323 C   0  0  0  0  0  0  0  0  0  0  0  0
   -2.8683    4.0198   -0.6561 N   0  0  0  0  0  0  0  0  0  0  0  0
   -1.9067    3.6127    0.3638 C   0  0  0  0  0  0  0  0  0  0  0  0
 14 15  1  0
 15 16  1  0
 15 13  1  0
 13 12  1  0
 12  1  1  0
  1  2  2  0
  2  3  1  0
  3  4  1  0
  4  5  2  0
  5  6  1  0
  6  7  2  0
  7  8  1  0
  8  9  1  0
  8 10  2  0
 10  1  1  0
 10  4  1  0
  3 11  1  0
M  CHG 1   9  -1
M  END
> <input_smiles>
CN(C)CCc1c[nH]c2cccc(O)c12

> <prot_variant_index>
2

> <minimizedAffinity>
0.00000

> <CNNscore>
0.8021883965

> <CNNaffinity>
3.5875043869

> <CNN_VS>
2.8778543472

> <CNNaffinity_variance>
1.5519212484

$$$$
Psilocin__p2


 16 17  0  0  0  0  0  0  0  0999 V2000
   -2.9691   -1.1903   -1.1667 C   0  0  0  0  0  0  0  0  0  0  0  0
   -3.7566   -1.5204   -2.2548 C   0  0  0  0  0  0  0  0  0  0  0  0
   -4.9225   -0.8224   -2.1566 N   0  0  0  0  0  0  0  0  0  0  0  0
   -4.9416   -0.0583   -1.0151 C   0  0  0  0  0  0  0  0  0  0  0  0
   -5.9502    0.7898   -0.5446 C   0  0  0  0  0  0  0  0  0  0  0  0
   -5.7262    1.4436    0.6613 C   0  0  0  0  0  0  0  0  0  0  0  0
   -4.5401    1.2439    1.3642 C   0  0  0  0  0  0  0  0  0  0  0  0
   -3.5108    0.3931    0.9107 C   0  0  0  0  0  0  0  0  0  0  0  0
   -2.4215    0.1723    1.5304 O   0  0  0  0  0  0  0  0  0  0  0  0
   -3.7303   -0.2712   -0.3397 C   0  0  0  0  0  0  0  0  0  0  0  0
   -5.6812   -0.8616   -2.8182 H   0  0  0  0  0  0  0  0  0  0  0  0
   -1.5999   -1.7306   -0.8874 C   0  0  0  0  0  0  0  0  0  0  0  0
   -0.7880   -2.1785   -2.1231 C   0  0  0  0  0  0  0  0  0  0  0  0
    1.1965   -3.6164   -1.9534 C   0  0  0  0  0  0  0  0  0  0  0  0
    0.6948   -2.2554   -2.0584 N   0  0  0  0  0  0  0  0  0  0  0  0
    1.3136   -1.5403   -3.1703 C   0  0  0  0  0  0  0  0  0  0  0  0
 14 15  1  0
 15 16  1  0
 15 13  1  0
 13 12  1  0
 12  1  1  0
  1  2  2  0
  2  3  1  0
  3  4  1  0
  4  5  2  0
  5  6  1  0
  6  7  2  0
  7  8  1  0
  8  9  1  0
  8 10  2  0
 10  1  1  0
 10  4  1  0
  3 11  1  0
M  CHG 1   9  -1
M  END
> <input_smiles>
CN(C)CCc1c[nH]c2cccc(O)c12

> <prot_variant_index>
2

> <minimizedAffinity>
0.00000

> <CNNscore>
0.8016486168

> <CNNaffinity>
3.7001581192

> <CNN_VS>
2.9662265778

> <CNNaffinity_variance>
1.3027951717

$$$$
Psilocin__p2


 16 17  0  0  0  0  0  0  0  0999 V2000
   -1.9290    5.3169   -3.1315 C   0  0  0  0  0  0  0  0  0  0  0  0
   -3.2385    5.3315   -3.5764 C   0  0  0  0  0  0  0  0  0  0  0  0
   -3.6879    6.6163   -3.5176 N   0  0  0  0  0  0  0  0  0  0  0  0
   -2.7188    7.4519   -3.0174 C   0  0  0  0  0  0  0  0  0  0  0  0
   -2.7819    8.8315   -2.7922 C   0  0  0  0  0  0  0  0  0  0  0  0
   -1.6557    9.4448   -2.2560 C   0  0  0  0  0  0  0  0  0  0  0  0
   -0.5198    8.6971   -1.9536 C   0  0  0  0  0  0  0  0  0  0  0  0
   -0.4339    7.3062   -2.1703 C   0  0  0  0  0  0  0  0  0  0  0  0
    0.5782    6.5864   -1.8932 O   0  0  0  0  0  0  0  0  0  0  0  0
   -1.5867    6.6718   -2.7374 C   0  0  0  0  0  0  0  0  0  0  0  0
   -4.6079    6.9237   -3.7894 H   0  0  0  0  0  0  0  0  0  0  0  0
   -1.0551    4.1036   -3.0377 C   0  0  0  0  0  0  0  0  0  0  0  0
   -1.7912    2.7543   -2.8826 C   0  0  0  0  0  0  0  0  0  0  0  0
   -0.1057    1.6324   -4.2737 C   0  0  0  0  0  0  0  0  0  0  0  0
   -1.4773    1.6202   -3.7904 N   0  0  0  0  0  0  0  0  0  0  0  0
   -1.8189    0.3393   -3.1793 C   0  0  0  0  0  0  0  0  0  0  0  0
 14 15  1  0
 15 16  1  0
 15 13  1  0
 13 12  1  0
 12  1  1  0
  1  2  2  0
  2  3  1  0
  3  4  1  0
  4  5  2  0
  5  6  1  0
  6  7  2  0
  7  8  1  0
  8  9  1  0
  8 10  2  0
 10  1  1  0
 10  4  1  0
  3 11  1  0
M  CHG 1   9  -1
M  END
> <input_smiles>
CN(C)CCc1c[nH]c2cccc(O)c12

> <prot_variant_index>
2

> <minimizedAffinity>
0.00000

> <CNNscore>
0.8006120324

> <CNNaffinity>
3.6576366425

> <CNN_VS>
2.9283478260

> <CNNaffinity_variance>
0.8264040947

$$$$
Psilocin__p2


 16 17  0  0  0  0  0  0  0  0999 V2000
   -2.2801    5.7436   -1.2526 C   0  0  0  0  0  0  0  0  0  0  0  0
   -3.0534    5.1610   -0.2649 C   0  0  0  0  0  0  0  0  0  0  0  0
   -2.2531    4.9293    0.8131 N   0  0  0  0  0  0  0  0  0  0  0  0
   -0.9604    5.3170    0.5560 C   0  0  0  0  0  0  0  0  0  0  0  0
    0.1600    5.2412    1.3909 C   0  0  0  0  0  0  0  0  0  0  0  0
    1.3715    5.6907    0.8789 C   0  0  0  0  0  0  0  0  0  0  0  0
    1.4494    6.1872   -0.4205 C   0  0  0  0  0  0  0  0  0  0  0  0
    0.3346    6.2715   -1.2801 C   0  0  0  0  0  0  0  0  0  0  0  0
    0.3679    6.7033   -2.4767 O   0  0  0  0  0  0  0  0  0  0  0  0
   -0.9197    5.8240   -0.7517 C   0  0  0  0  0  0  0  0  0  0  0  0
   -2.5532    4.5186    1.6826 H   0  0  0  0  0  0  0  0  0  0  0  0
   -2.7684    6.1654   -2.6048 C   0  0  0  0  0  0  0  0  0  0  0  0
   -2.6573    5.1040   -3.7218 C   0  0  0  0  0  0  0  0  0  0  0  0
   -3.5613    2.8552   -3.3211 C   0  0  0  0  0  0  0  0  0  0  0  0
   -3.7683    4.1457   -3.9588 N   0  0  0  0  0  0  0  0  0  0  0  0
   -5.0572    4.7243   -3.5919 C   0  0  0  0  0  0  0  0  0  0  0  0
 14 15  1  0
 15 16  1  0
 15 13  1  0
 13 12  1  0
 12  1  1  0
  1  2  2  0
  2  3  1  0
  3  4  1  0
  4  5  2  0
  5  6  1  0
  6  7  2  0
  7  8  1  0
  8  9  1  0
  8 10  2  0
 10  1  1  0
 10  4  1  0
  3 11  1  0
M  CHG 1   9  -1
M  END
> <input_smiles>
CN(C)CCc1c[nH]c2cccc(O)c12

> <prot_variant_index>
2

> <minimizedAffinity>
0.00000

> <CNNscore>
0.8005952835

> <CNNaffinity>
3.7112648487

> <CNN_VS>
2.9712212086

> <CNNaffinity_variance>
1.4737607241

$$$$
Psilocin__p2


 16 17  0  0  0  0  0  0  0  0999 V2000
   -1.5024    6.2235   -1.7088 C   0  0  0  0  0  0  0  0  0  0  0  0
   -2.7016    6.7921   -1.3194 C   0  0  0  0  0  0  0  0  0  0  0  0
   -2.4259    7.7839   -0.4269 N   0  0  0  0  0  0  0  0  0  0  0  0
   -1.0751    7.8697   -0.1914 C   0  0  0  0  0  0  0  0  0  0  0  0
   -0.3871    8.7432    0.6581 C   0  0  0  0  0  0  0  0  0  0  0  0
    0.9946    8.6111    0.7294 C   0  0  0  0  0  0  0  0  0  0  0  0
    1.6512    7.6356   -0.0178 C   0  0  0  0  0  0  0  0  0  0  0  0
    0.9789    6.7436   -0.8788 C   0  0  0  0  0  0  0  0  0  0  0  0
    1.5399    5.8303   -1.5646 O   0  0  0  0  0  0  0  0  0  0  0  0
   -0.4441    6.8860   -0.9677 C   0  0  0  0  0  0  0  0  0  0  0  0
   -3.1113    8.3738    0.0170 H   0  0  0  0  0  0  0  0  0  0  0  0
   -1.3495    5.0976   -2.6854 C   0  0  0  0  0  0  0  0  0  0  0  0
   -1.0736    5.5087   -4.1488 C   0  0  0  0  0  0  0  0  0  0  0  0
   -3.4098    5.0302   -4.7385 C   0  0  0  0  0  0  0  0  0  0  0  0
   -2.2021    5.7643   -5.0814 N   0  0  0  0  0  0  0  0  0  0  0  0
   -2.4647    7.1935   -5.2197 C   0  0  0  0  0  0  0  0  0  0  0  0
 14 15  1  0
 15 16  1  0
 15 13  1  0
 13 12  1  0
 12  1  1  0
  1  2  2  0
  2  3  1  0
  3  4  1  0
  4  5  2  0
  5  6  1  0
  6  7  2  0
  7  8  1  0
  8  9  1  0
  8 10  2  0
 10  1  1  0
 10  4  1  0
  3 11  1  0
M  CHG 1   9  -1
M  END
> <input_smiles>
CN(C)CCc1c[nH]c2cccc(O)c12

> <prot_variant_index>
2

> <minimizedAffinity>
0.00000

> <CNNscore>
0.8001242280

> <CNNaffinity>
3.5736684799

> <CNN_VS>
2.8593788147

> <CNNaffinity_variance>
1.0175843239

$$$$
Psilocin__p2


 16 17  0  0  0  0  0  0  0  0999 V2000
   -8.5401    2.3653   -2.1461 C   0  0  0  0  0  0  0  0  0  0  0  0
   -8.7350    1.1889   -1.4454 C   0  0  0  0  0  0  0  0  0  0  0  0
   -7.7674    1.1038   -0.4900 N   0  0  0  0  0  0  0  0  0  0  0  0
   -6.9167    2.1805   -0.5569 C   0  0  0  0  0  0  0  0  0  0  0  0
   -5.7981    2.4644    0.2344 C   0  0  0  0  0  0  0  0  0  0  0  0
   -5.0887    3.6246   -0.0528 C   0  0  0  0  0  0  0  0  0  0  0  0
   -5.4865    4.4566   -1.0969 C   0  0  0  0  0  0  0  0  0  0  0  0
   -6.6088    4.1901   -1.9083 C   0  0  0  0  0  0  0  0  0  0  0  0
   -6.9947    4.9156   -2.8799 O   0  0  0  0  0  0  0  0  0  0  0  0
   -7.3527    3.0033   -1.6065 C   0  0  0  0  0  0  0  0  0  0  0  0
   -7.6702    0.3525    0.1739 H   0  0  0  0  0  0  0  0  0  0  0  0
   -9.3859    2.8514   -3.2832 C   0  0  0  0  0  0  0  0  0  0  0  0
  -10.5378    3.8085   -2.9040 C   0  0  0  0  0  0  0  0  0  0  0  0
  -10.4591    6.0628   -1.9309 C   0  0  0  0  0  0  0  0  0  0  0  0
  -10.4529    4.6321   -1.6698 N   0  0  0  0  0  0  0  0  0  0  0  0
  -11.4858    4.2582   -0.7086 C   0  0  0  0  0  0  0  0  0  0  0  0
 14 15  1  0
 15 16  1  0
 15 13  1  0
 13 12  1  0
 12  1  1  0
  1  2  2  0
  2  3  1  0
  3  4  1  0
  4  5  2  0
  5  6  1  0
  6  7  2  0
  7  8  1  0
  8  9  1  0
  8 10  2  0
 10  1  1  0
 10  4  1  0
  3 11  1  0
M  CHG 1   9  -1
M  END
> <input_smiles>
CN(C)CCc1c[nH]c2cccc(O)c12

> <prot_variant_index>
2

> <minimizedAffinity>
0.00000

> <CNNscore>
0.7988992333

> <CNNaffinity>
3.6050755978

> <CNN_VS>
2.8800921440

> <CNNaffinity_variance>
1.4230934381

$$$$
Psilocin__p2


 16 17  0  0  0  0  0  0  0  0999 V2000
   -3.4662    0.7074   -0.4594 C   0  0  0  0  0  0  0  0  0  0  0  0
   -4.2537    0.3773   -1.5475 C   0  0  0  0  0  0  0  0  0  0  0  0
   -5.4196    1.0752   -1.4493 N   0  0  0  0  0  0  0  0  0  0  0  0
   -5.4387    1.8394   -0.3078 C   0  0  0  0  0  0  0  0  0  0  0  0
   -6.4473    2.6875    0.1627 C   0  0  0  0  0  0  0  0  0  0  0  0
   -6.2233    3.3413    1.3686 C   0  0  0  0  0  0  0  0  0  0  0  0
   -5.0372    3.1415    2.0716 C   0  0  0  0  0  0  0  0  0  0  0  0
   -4.0079    2.2907    1.6180 C   0  0  0  0  0  0  0  0  0  0  0  0
   -2.9186    2.0700    2.2377 O   0  0  0  0  0  0  0  0  0  0  0  0
   -4.2274    1.6265    0.3676 C   0  0  0  0  0  0  0  0  0  0  0  0
   -6.1783    1.0361   -2.1109 H   0  0  0  0  0  0  0  0  0  0  0  0
   -2.0970    0.1670   -0.1801 C   0  0  0  0  0  0  0  0  0  0  0  0
   -2.0362   -1.0631    0.7526 C   0  0  0  0  0  0  0  0  0  0  0  0
   -3.5080   -3.0197    0.9538 C   0  0  0  0  0  0  0  0  0  0  0  0
   -3.2839   -1.6318    1.3259 N   0  0  0  0  0  0  0  0  0  0  0  0
   -3.3355   -1.4498    2.7732 C   0  0  0  0  0  0  0  0  0  0  0  0
 14 15  1  0
 15 16  1  0
 15 13  1  0
 13 12  1  0
 12  1  1  0
  1  2  2  0
  2  3  1  0
  3  4  1  0
  4  5  2  0
  5  6  1  0
  6  7  2  0
  7  8  1  0
  8  9  1  0
  8 10  2  0
 10  1  1  0
 10  4  1  0
  3 11  1  0
M  CHG 1   9  -1
M  END
> <input_smiles>
CN(C)CCc1c[nH]c2cccc(O)c12

> <prot_variant_index>
2

> <minimizedAffinity>
0.00000

> <CNNscore>
0.7968870997

> <CNNaffinity>
3.7516958714

> <CNN_VS>
2.9896781445

> <CNNaffinity_variance>
2.1969606876

$$$$
Psilocin__p3


 18 19  0  0  0  0  0  0  0  0999 V2000
   -4.3749    0.3349   -1.8274 C   0  0  0  0  0  0  0  0  0  0  0  0
   -4.0642   -0.7914   -2.5652 C   0  0  0  0  0  0  0  0  0  0  0  0
   -3.9826   -1.8603   -1.7129 N   0  0  0  0  0  0  0  0  0  0  0  0
   -4.2152   -1.4523   -0.4207 C   0  0  0  0  0  0  0  0  0  0  0  0
   -4.2361   -2.1975    0.7646 C   0  0  0  0  0  0  0  0  0  0  0  0
   -4.5143   -1.5208    1.9559 C   0  0  0  0  0  0  0  0  0  0  0  0
   -4.7573   -0.1495    1.9653 C   0  0  0  0  0  0  0  0  0  0  0  0
   -4.7305    0.5737    0.7692 C   0  0  0  0  0  0  0  0  0  0  0  0
   -4.9265    1.9381    0.7986 O   0  0  0  0  0  0  0  0  0  0  0  0
   -4.4612   -0.0787   -0.4545 C   0  0  0  0  0  0  0  0  0  0  0  0
   -3.7968   -2.8166   -1.9884 H   0  0  0  0  0  0  0  0  0  0  0  0
   -5.4521    2.1147    1.6055 H   0  0  0  0  0  0  0  0  0  0  0  0
   -4.6061    1.7062   -2.3803 C   0  0  0  0  0  0  0  0  0  0  0  0
   -4.3527    1.8109   -3.8878 C   0  0  0  0  0  0  0  0  0  0  0  0
   -3.2019    3.6817   -5.1203 C   0  0  0  0  0  0  0  0  0  0  0  0
   -3.0451    2.5246   -4.1864 N   0  0  0  0  0  0  0  0  0  0  0  0
   -1.9552    1.5872   -4.6160 C   0  0  0  0  0  0  0  0  0  0  0  0
   -2.7165    2.9315   -3.2887 H   0  0  0  0  0  0  0  0  0  0  0  0
 15 16  1  0
 16 17  1  0
 16 14  1  0
 14 13  1  0
 13  1  1  0
  1  2  2  0
  2  3  1  0
  3  4  1  0
  4  5  2  0
  5  6  1  0
  6  7  2  0
  7  8  1  0
  8  9  1  0
  8 10  2  0
 10  1  1  0
 10  4  1  0
 16 18  1  0
  3 11  1  0
  9 12  1  0
M  CHG 1  16   1
M  END
> <input_smiles>
CN(C)CCc1c[nH]c2cccc(O)c12

> <prot_variant_index>
3

> <minimizedAffinity>
0.00000

> <CNNscore>
0.6437433958

> <CNNaffinity>
3.3328332901

> <CNN_VS>
2.1454894543

> <CNNaffinity_variance>
0.5334171653

$$$$
Psilocin__p3


 18 19  0  0  0  0  0  0  0  0999 V2000
   -0.0862   -5.1697    1.4025 C   0  0  0  0  0  0  0  0  0  0  0  0
    0.5163   -5.1534    0.1590 C   0  0  0  0  0  0  0  0  0  0  0  0
   -0.2297   -5.9211   -0.6952 N   0  0  0  0  0  0  0  0  0  0  0  0
   -1.3048   -6.4600   -0.0288 C   0  0  0  0  0  0  0  0  0  0  0  0
   -2.3244   -7.2959   -0.5003 C   0  0  0  0  0  0  0  0  0  0  0  0
   -3.3142   -7.6916    0.4043 C   0  0  0  0  0  0  0  0  0  0  0  0
   -3.2850   -7.2732    1.7322 C   0  0  0  0  0  0  0  0  0  0  0  0
   -2.2565   -6.4390    2.1802 C   0  0  0  0  0  0  0  0  0  0  0  0
   -2.2137   -6.0703    3.5080 O   0  0  0  0  0  0  0  0  0  0  0  0
   -1.2442   -6.0124    1.2919 C   0  0  0  0  0  0  0  0  0  0  0  0
   -0.0348   -6.0613   -1.6788 H   0  0  0  0  0  0  0  0  0  0  0  0
   -3.1364   -6.1262    3.8302 H   0  0  0  0  0  0  0  0  0  0  0  0
    0.3789   -4.4171    2.6095 C   0  0  0  0  0  0  0  0  0  0  0  0
    1.2843   -5.2381    3.5335 C   0  0  0  0  0  0  0  0  0  0  0  0
    3.3153   -6.3610    2.5550 C   0  0  0  0  0  0  0  0  0  0  0  0
    2.7466   -5.1090    3.1420 N   0  0  0  0  0  0  0  0  0  0  0  0
    3.5986   -4.5578    4.2472 C   0  0  0  0  0  0  0  0  0  0  0  0
    2.7902   -4.3992    2.3845 H   0  0  0  0  0  0  0  0  0  0  0  0
 15 16  1  0
 16 17  1  0
 16 14  1  0
 14 13  1  0
 13  1  1  0
  1  2  2  0
  2  3  1  0
  3  4  1  0
  4  5  2  0
  5  6  1  0
  6  7  2  0
  7  8  1  0
  8  9  1  0
  8 10  2  0
 10  1  1  0
 10  4  1  0
 16 18  1  0
  3 11  1  0
  9 12  1  0
M  CHG 1  16   1
M  END
> <input_smiles>
CN(C)CCc1c[nH]c2cccc(O)c12

> <prot_variant_index>
3

> <minimizedAffinity>
0.00000

> <CNNscore>
0.6306258440

> <CNNaffinity>
3.3341331482

> <CNN_VS>
2.1025905609

> <CNNaffinity_variance>
1.0385169983

$$$$
Psilocin__p3


 18 19  0  0  0  0  0  0  0  0999 V2000
   -3.4662    0.7082    0.0002 C   0  0  0  0  0  0  0  0  0  0  0  0
   -3.9932   -0.3633   -0.6953 C   0  0  0  0  0  0  0  0  0  0  0  0
   -4.0850   -1.4315    0.1567 N   0  0  0  0  0  0  0  0  0  0  0  0
   -3.6078   -1.0865    1.3992 C   0  0  0  0  0  0  0  0  0  0  0  0
   -3.5138   -1.8524    2.5676 C   0  0  0  0  0  0  0  0  0  0  0  0
   -2.9915   -1.2383    3.7099 C   0  0  0  0  0  0  0  0  0  0  0  0
   -2.5730    0.0897    3.6859 C   0  0  0  0  0  0  0  0  0  0  0  0
   -2.6761    0.8344    2.5073 C   0  0  0  0  0  0  0  0  0  0  0  0
   -2.2150    2.1335    2.4848 O   0  0  0  0  0  0  0  0  0  0  0  0
   -3.2069    0.2490    1.3363 C   0  0  0  0  0  0  0  0  0  0  0  0
   -4.4644   -2.3396   -0.0808 H   0  0  0  0  0  0  0  0  0  0  0  0
   -2.2610    2.4489    3.4104 H   0  0  0  0  0  0  0  0  0  0  0  0
   -3.2486    2.0841   -0.5469 C   0  0  0  0  0  0  0  0  0  0  0  0
   -3.6668    2.2348   -2.0132 C   0  0  0  0  0  0  0  0  0  0  0  0
   -2.6490    3.5055   -3.9348 C   0  0  0  0  0  0  0  0  0  0  0  0
   -2.4632    2.4222   -2.9212 N   0  0  0  0  0  0  0  0  0  0  0  0
   -1.9934    1.1374   -3.5375 C   0  0  0  0  0  0  0  0  0  0  0  0
   -1.6797    2.7364   -2.3155 H   0  0  0  0  0  0  0  0  0  0  0  0
 15 16  1  0
 16 17  1  0
 16 14  1  0
 14 13  1  0
 13  1  1  0
  1  2  2  0
  2  3  1  0
  3  4  1  0
  4  5  2  0
  5  6  1  0
  6  7  2  0
  7  8  1  0
  8  9  1  0
  8 10  2  0
 10  1  1  0
 10  4  1  0
 16 18  1  0
  3 11  1  0
  9 12  1  0
M  CHG 1  16   1
M  END
> <input_smiles>
CN(C)CCc1c[nH]c2cccc(O)c12

> <prot_variant_index>
3

> <minimizedAffinity>
0.00000

> <CNNscore>
0.6266018152

> <CNNaffinity>
3.2541046143

> <CNN_VS>
2.0390279293

> <CNNaffinity_variance>
0.2570635974

$$$$
Psilocin__p3


 18 19  0  0  0  0  0  0  0  0999 V2000
   -0.8853   -3.8408   -0.1968 C   0  0  0  0  0  0  0  0  0  0  0  0
   -0.0195   -4.0237   -1.2581 C   0  0  0  0  0  0  0  0  0  0  0  0
   -0.2374   -5.2679   -1.7872 N   0  0  0  0  0  0  0  0  0  0  0  0
   -1.2206   -5.9167   -1.0780 C   0  0  0  0  0  0  0  0  0  0  0  0
   -1.7656   -7.1931   -1.2634 C   0  0  0  0  0  0  0  0  0  0  0  0
   -2.7776   -7.6036   -0.3904 C   0  0  0  0  0  0  0  0  0  0  0  0
   -3.2258   -6.7730    0.6337 C   0  0  0  0  0  0  0  0  0  0  0  0
   -2.6660   -5.5028    0.7996 C   0  0  0  0  0  0  0  0  0  0  0  0
   -3.0861   -4.7093    1.8459 O   0  0  0  0  0  0  0  0  0  0  0  0
   -1.6475   -5.0516   -0.0692 C   0  0  0  0  0  0  0  0  0  0  0  0
    0.2385   -5.6536   -2.5933 H   0  0  0  0  0  0  0  0  0  0  0  0
   -3.9940   -5.0073    2.0588 H   0  0  0  0  0  0  0  0  0  0  0  0
   -1.0099   -2.5968    0.6257 C   0  0  0  0  0  0  0  0  0  0  0  0
   -0.1103   -1.4523    0.1477 C   0  0  0  0  0  0  0  0  0  0  0  0
    1.1659    0.2881    1.4460 C   0  0  0  0  0  0  0  0  0  0  0  0
    1.0046   -1.1664    1.1394 N   0  0  0  0  0  0  0  0  0  0  0  0
    2.3020   -1.8177    0.7603 C   0  0  0  0  0  0  0  0  0  0  0  0
    0.7273   -1.6128    2.0356 H   0  0  0  0  0  0  0  0  0  0  0  0
 15 16  1  0
 16 17  1  0
 16 14  1  0
 14 13  1  0
 13  1  1  0
  1  2  2  0
  2  3  1  0
  3  4  1  0
  4  5  2  0
  5  6  1  0
  6  7  2  0
  7  8  1  0
  8  9  1  0
  8 10  2  0
 10  1  1  0
 10  4  1  0
 16 18  1  0
  3 11  1  0
  9 12  1  0
M  CHG 1  16   1
M  END
> <input_smiles>
CN(C)CCc1c[nH]c2cccc(O)c12

> <prot_variant_index>
3

> <minimizedAffinity>
0.00000

> <CNNscore>
0.6075359583

> <CNNaffinity>
3.1444475651

> <CNN_VS>
1.9103649855

> <CNNaffinity_variance>
0.4221470356

$$$$
Psilocin__p3


 18 19  0  0  0  0  0  0  0  0999 V2000
   -0.6398   -5.7148    2.6127 C   0  0  0  0  0  0  0  0  0  0  0  0
   -0.0912   -5.0847    1.5121 C   0  0  0  0  0  0  0  0  0  0  0  0
   -1.0222   -5.0758    0.5078 N   0  0  0  0  0  0  0  0  0  0  0  0
   -2.1702   -5.7084    0.9227 C   0  0  0  0  0  0  0  0  0  0  0  0
   -3.3704   -5.9288    0.2362 C   0  0  0  0  0  0  0  0  0  0  0  0
   -4.3946   -6.5995    0.9113 C   0  0  0  0  0  0  0  0  0  0  0  0
   -4.2256   -7.0393    2.2219 C   0  0  0  0  0  0  0  0  0  0  0  0
   -3.0179   -6.8082    2.8869 C   0  0  0  0  0  0  0  0  0  0  0  0
   -2.8473   -7.2897    4.1674 O   0  0  0  0  0  0  0  0  0  0  0  0
   -1.9642   -6.1261    2.2386 C   0  0  0  0  0  0  0  0  0  0  0  0
   -0.8976   -4.6515   -0.4031 H   0  0  0  0  0  0  0  0  0  0  0  0
   -3.7468   -7.3639    4.5465 H   0  0  0  0  0  0  0  0  0  0  0  0
    0.0263   -5.8922    3.9411 C   0  0  0  0  0  0  0  0  0  0  0  0
   -0.3714   -4.8322    4.9735 C   0  0  0  0  0  0  0  0  0  0  0  0
    1.9168   -3.8283    4.6587 C   0  0  0  0  0  0  0  0  0  0  0  0
    0.4538   -3.5658    4.8207 N   0  0  0  0  0  0  0  0  0  0  0  0
    0.1700   -2.5534    5.8910 C   0  0  0  0  0  0  0  0  0  0  0  0
    0.1496   -3.1177    3.9341 H   0  0  0  0  0  0  0  0  0  0  0  0
 15 16  1  0
 16 17  1  0
 16 14  1  0
 14 13  1  0
 13  1  1  0
  1  2  2  0
  2  3  1  0
  3  4  1  0
  4  5  2  0
  5  6  1  0
  6  7  2  0
  7  8  1  0
  8  9  1  0
  8 10  2  0
 10  1  1  0
 10  4  1  0
 16 18  1  0
  3 11  1  0
  9 12  1  0
M  CHG 1  16   1
M  END
> <input_smiles>
CN(C)CCc1c[nH]c2cccc(O)c12

> <prot_variant_index>
3

> <minimizedAffinity>
0.00000

> <CNNscore>
0.5991010070

> <CNNaffinity>
3.1318168640

> <CNN_VS>
1.8762745857

> <CNNaffinity_variance>
0.5998637080

$$$$
Psilocin__p3


 18 19  0  0  0  0  0  0  0  0999 V2000
   -3.3754    1.2532   -3.1572 C   0  0  0  0  0  0  0  0  0  0  0  0
   -2.1920    1.0701   -2.4677 C   0  0  0  0  0  0  0  0  0  0  0  0
   -2.4799    0.5100   -1.2516 N   0  0  0  0  0  0  0  0  0  0  0  0
   -3.8378    0.3391   -1.1203 C   0  0  0  0  0  0  0  0  0  0  0  0
   -4.5754   -0.1956   -0.0570 C   0  0  0  0  0  0  0  0  0  0  0  0
   -5.9650   -0.2622   -0.1952 C   0  0  0  0  0  0  0  0  0  0  0  0
   -6.5964    0.1932   -1.3499 C   0  0  0  0  0  0  0  0  0  0  0  0
   -5.8391    0.7238   -2.3983 C   0  0  0  0  0  0  0  0  0  0  0  0
   -6.4802    1.2138   -3.5161 O   0  0  0  0  0  0  0  0  0  0  0  0
   -4.4320    0.7987   -2.2968 C   0  0  0  0  0  0  0  0  0  0  0  0
   -1.7973    0.2415   -0.5537 H   0  0  0  0  0  0  0  0  0  0  0  0
   -7.3359    0.7405   -3.5617 H   0  0  0  0  0  0  0  0  0  0  0  0
   -3.5030    1.7921   -4.5476 C   0  0  0  0  0  0  0  0  0  0  0  0
   -2.1708    2.2423   -5.1560 C   0  0  0  0  0  0  0  0  0  0  0  0
   -0.9213    0.1958   -5.9264 C   0  0  0  0  0  0  0  0  0  0  0  0
   -1.7656    1.3630   -6.3268 N   0  0  0  0  0  0  0  0  0  0  0  0
   -1.1635    2.1421   -7.4589 C   0  0  0  0  0  0  0  0  0  0  0  0
   -2.6413    0.9569   -6.7109 H   0  0  0  0  0  0  0  0  0  0  0  0
 15 16  1  0
 16 17  1  0
 16 14  1  0
 14 13  1  0
 13  1  1  0
  1  2  2  0
  2  3  1  0
  3  4  1  0
  4  5  2  0
  5  6  1  0
  6  7  2  0
  7  8  1  0
  8  9  1  0
  8 10  2  0
 10  1  1  0
 10  4  1  0
 16 18  1  0
  3 11  1  0
  9 12  1  0
M  CHG 1  16   1
M  END
> <input_smiles>
CN(C)CCc1c[nH]c2cccc(O)c12

> <prot_variant_index>
3

> <minimizedAffinity>
0.00000

> <CNNscore>
0.5968287587

> <CNNaffinity>
3.0425007343

> <CNN_VS>
1.8158519268

> <CNNaffinity_variance>
0.4244039357

$$$$
Psilocin__p3


 18 19  0  0  0  0  0  0  0  0999 V2000
   -2.2804    1.6488   -1.4921 C   0  0  0  0  0  0  0  0  0  0  0  0
   -1.8241    1.0630   -2.6574 C   0  0  0  0  0  0  0  0  0  0  0  0
   -0.7912    1.8171   -3.1472 N   0  0  0  0  0  0  0  0  0  0  0  0
   -0.5721    2.9030   -2.3329 C   0  0  0  0  0  0  0  0  0  0  0  0
    0.3746    3.9289   -2.4422 C   0  0  0  0  0  0  0  0  0  0  0  0
    0.3833    4.9169   -1.4530 C   0  0  0  0  0  0  0  0  0  0  0  0
   -0.5232    4.8856   -0.3963 C   0  0  0  0  0  0  0  0  0  0  0  0
   -1.4598    3.8515   -0.3085 C   0  0  0  0  0  0  0  0  0  0  0  0
   -2.3815    3.8581    0.7168 O   0  0  0  0  0  0  0  0  0  0  0  0
   -1.4920    2.8316   -1.2855 C   0  0  0  0  0  0  0  0  0  0  0  0
   -0.2512    1.6030   -3.9765 H   0  0  0  0  0  0  0  0  0  0  0  0
   -1.9693    4.3698    1.4426 H   0  0  0  0  0  0  0  0  0  0  0  0
   -3.3671    1.1152   -0.6123 C   0  0  0  0  0  0  0  0  0  0  0  0
   -2.8485    0.3138    0.5862 C   0  0  0  0  0  0  0  0  0  0  0  0
   -3.6270   -1.7690   -0.5968 C   0  0  0  0  0  0  0  0  0  0  0  0
   -2.5425   -1.1250    0.2061 N   0  0  0  0  0  0  0  0  0  0  0  0
   -2.1274   -1.9616    1.3805 C   0  0  0  0  0  0  0  0  0  0  0  0
   -1.7112   -1.0978   -0.4165 H   0  0  0  0  0  0  0  0  0  0  0  0
 15 16  1  0
 16 17  1  0
 16 14  1  0
 14 13  1  0
 13  1  1  0
  1  2  2  0
  2  3  1  0
  3  4  1  0
  4  5  2  0
  5  6  1  0
  6  7  2  0
  7  8  1  0
  8  9  1  0
  8 10  2  0
 10  1  1  0
 10  4  1  0
 16 18  1  0
  3 11  1  0
  9 12  1  0
M  CHG 1  16   1
M  END
> <input_smiles>
CN(C)CCc1c[nH]c2cccc(O)c12

> <prot_variant_index>
3

> <minimizedAffinity>
0.00000

> <CNNscore>
0.5832182169

> <CNNaffinity>
3.3835668564

> <CNN_VS>
1.9733577967

> <CNNaffinity_variance>
1.2159990072

$$$$
Psilocin__p3


 18 19  0  0  0  0  0  0  0  0999 V2000
   -4.6977    0.0044   -2.3646 C   0  0  0  0  0  0  0  0  0  0  0  0
   -4.3870   -1.1219   -3.1024 C   0  0  0  0  0  0  0  0  0  0  0  0
   -4.3054   -2.1908   -2.2501 N   0  0  0  0  0  0  0  0  0  0  0  0
   -4.5380   -1.7828   -0.9579 C   0  0  0  0  0  0  0  0  0  0  0  0
   -4.5589   -2.5280    0.2274 C   0  0  0  0  0  0  0  0  0  0  0  0
   -4.8371   -1.8513    1.4187 C   0  0  0  0  0  0  0  0  0  0  0  0
   -5.0801   -0.4800    1.4281 C   0  0  0  0  0  0  0  0  0  0  0  0
   -5.0533    0.2432    0.2320 C   0  0  0  0  0  0  0  0  0  0  0  0
   -5.2493    1.6076    0.2614 O   0  0  0  0  0  0  0  0  0  0  0  0
   -4.7840   -0.4092   -0.9917 C   0  0  0  0  0  0  0  0  0  0  0  0
   -4.1196   -3.1471   -2.5256 H   0  0  0  0  0  0  0  0  0  0  0  0
   -5.7749    1.7842    1.0682 H   0  0  0  0  0  0  0  0  0  0  0  0
   -4.9289    1.3757   -2.9176 C   0  0  0  0  0  0  0  0  0  0  0  0
   -6.4084    1.7069   -3.1386 C   0  0  0  0  0  0  0  0  0  0  0  0
   -7.3689    2.2932   -5.3918 C   0  0  0  0  0  0  0  0  0  0  0  0
   -6.8991    1.2014   -4.4847 N   0  0  0  0  0  0  0  0  0  0  0  0
   -7.9011    0.0917   -4.3596 C   0  0  0  0  0  0  0  0  0  0  0  0
   -6.0790    0.7758   -4.9596 H   0  0  0  0  0  0  0  0  0  0  0  0
 15 16  1  0
 16 17  1  0
 16 14  1  0
 14 13  1  0
 13  1  1  0
  1  2  2  0
  2  3  1  0
  3  4  1  0
  4  5  2  0
  5  6  1  0
  6  7  2  0
  7  8  1  0
  8  9  1  0
  8 10  2  0
 10  1  1  0
 10  4  1  0
 16 18  1  0
  3 11  1  0
  9 12  1  0
M  CHG 1  16   1
M  END
> <input_smiles>
CN(C)CCc1c[nH]c2cccc(O)c12

> <prot_variant_index>
3

> <minimizedAffinity>
0.00000

> <CNNscore>
0.5718050003

> <CNNaffinity>
3.1127994061

> <CNN_VS>
1.7799142599

> <CNNaffinity_variance>
0.5289571881

$$$$
Psilocin__p3


 18 19  0  0  0  0  0  0  0  0999 V2000
   -2.9691   -1.1895   -0.7071 C   0  0  0  0  0  0  0  0  0  0  0  0
   -2.7835   -2.5324   -0.9743 C   0  0  0  0  0  0  0  0  0  0  0  0
   -2.6361   -3.1956    0.2148 N   0  0  0  0  0  0  0  0  0  0  0  0
   -2.7018   -2.3071    1.2620 C   0  0  0  0  0  0  0  0  0  0  0  0
   -2.6067   -2.5371    2.6400 C   0  0  0  0  0  0  0  0  0  0  0  0
   -2.7211   -1.4365    3.4945 C   0  0  0  0  0  0  0  0  0  0  0  0
   -2.9176   -0.1524    2.9925 C   0  0  0  0  0  0  0  0  0  0  0  0
   -3.0088    0.0527    1.6127 C   0  0  0  0  0  0  0  0  0  0  0  0
   -3.1565    1.3346    1.1271 O   0  0  0  0  0  0  0  0  0  0  0  0
   -2.9063   -1.0373    0.7198 C   0  0  0  0  0  0  0  0  0  0  0  0
   -2.5145   -4.1956    0.3170 H   0  0  0  0  0  0  0  0  0  0  0  0
   -3.5775    1.8459    1.8480 H   0  0  0  0  0  0  0  0  0  0  0  0
   -3.2201   -0.1218   -1.7254 C   0  0  0  0  0  0  0  0  0  0  0  0
   -3.9986   -0.6128   -2.9503 C   0  0  0  0  0  0  0  0  0  0  0  0
   -5.1536    0.6585   -4.7924 C   0  0  0  0  0  0  0  0  0  0  0  0
   -5.1097    0.3515   -3.3297 N   0  0  0  0  0  0  0  0  0  0  0  0
   -5.1178    1.5916   -2.4851 C   0  0  0  0  0  0  0  0  0  0  0  0
   -6.0060   -0.1289   -3.1170 H   0  0  0  0  0  0  0  0  0  0  0  0
 15 16  1  0
 16 17  1  0
 16 14  1  0
 14 13  1  0
 13  1  1  0
  1  2  2  0
  2  3  1  0
  3  4  1  0
  4  5  2  0
  5  6  1  0
  6  7  2  0
  7  8  1  0
  8  9  1  0
  8 10  2  0
 10  1  1  0
 10  4  1  0
 16 18  1  0
  3 11  1  0
  9 12  1  0
M  CHG 1  16   1
M  END
> <input_smiles>
CN(C)CCc1c[nH]c2cccc(O)c12

> <prot_variant_index>
3

> <minimizedAffinity>
0.00000

> <CNNscore>
0.5642745495

> <CNNaffinity>
3.1617324352

> <CNN_VS>
1.7840851545

> <CNNaffinity_variance>
0.3356590569

$$$$
Psilocin__p3


 18 19  0  0  0  0  0  0  0  0999 V2000
   -2.8040    1.0047   -1.7884 C   0  0  0  0  0  0  0  0  0  0  0  0
   -3.3310   -0.0668   -2.4839 C   0  0  0  0  0  0  0  0  0  0  0  0
   -3.4228   -1.1350   -1.6318 N   0  0  0  0  0  0  0  0  0  0  0  0
   -2.9457   -0.7900   -0.3894 C   0  0  0  0  0  0  0  0  0  0  0  0
   -2.8516   -1.5559    0.7791 C   0  0  0  0  0  0  0  0  0  0  0  0
   -2.3293   -0.9418    1.9213 C   0  0  0  0  0  0  0  0  0  0  0  0
   -1.9108    0.3862    1.8974 C   0  0  0  0  0  0  0  0  0  0  0  0
   -2.0139    1.1309    0.7188 C   0  0  0  0  0  0  0  0  0  0  0  0
   -1.5528    2.4300    0.6962 O   0  0  0  0  0  0  0  0  0  0  0  0
   -2.5447    0.5455   -0.4523 C   0  0  0  0  0  0  0  0  0  0  0  0
   -3.8022   -2.0431   -1.8694 H   0  0  0  0  0  0  0  0  0  0  0  0
   -1.5988    2.7454    1.6219 H   0  0  0  0  0  0  0  0  0  0  0  0
   -2.5865    2.3806   -2.3355 C   0  0  0  0  0  0  0  0  0  0  0  0
   -1.1653    2.6159   -2.8575 C   0  0  0  0  0  0  0  0  0  0  0  0
    0.3118    2.4965   -4.8939 C   0  0  0  0  0  0  0  0  0  0  0  0
   -1.0141    2.1504   -4.2958 N   0  0  0  0  0  0  0  0  0  0  0  0
   -2.1611    2.5703   -5.1671 C   0  0  0  0  0  0  0  0  0  0  0  0
   -1.0512    1.1123   -4.2780 H   0  0  0  0  0  0  0  0  0  0  0  0
 15 16  1  0
 16 17  1  0
 16 14  1  0
 14 13  1  0
 13  1  1  0
  1  2  2  0
  2  3  1  0
  3  4  1  0
  4  5  2  0
  5  6  1  0
  6  7  2  0
  7  8  1  0
  8  9  1  0
  8 10  2  0
 10  1  1  0
 10  4  1  0
 16 18  1  0
  3 11  1  0
  9 12  1  0
M  CHG 1  16   1
M  END
> <input_smiles>
CN(C)CCc1c[nH]c2cccc(O)c12

> <prot_variant_index>
3

> <minimizedAffinity>
0.00000

> <CNNscore>
0.5611935854

> <CNNaffinity>
3.0740373135

> <CNN_VS>
1.7251300812

> <CNNaffinity_variance>
0.4124903679

$$$$
Psilocin__p3


 18 19  0  0  0  0  0  0  0  0999 V2000
   -4.5274    1.0000    1.3337 C   0  0  0  0  0  0  0  0  0  0  0  0
   -4.4847    0.1023    0.2840 C   0  0  0  0  0  0  0  0  0  0  0  0
   -4.5333   -1.1671    0.7957 N   0  0  0  0  0  0  0  0  0  0  0  0
   -4.5873   -1.1207    2.1688 C   0  0  0  0  0  0  0  0  0  0  0  0
   -4.6519   -2.1652    3.0991 C   0  0  0  0  0  0  0  0  0  0  0  0
   -4.7096   -1.8288    4.4548 C   0  0  0  0  0  0  0  0  0  0  0  0
   -4.6977   -0.4988    4.8678 C   0  0  0  0  0  0  0  0  0  0  0  0
   -4.6322    0.5272    3.9205 C   0  0  0  0  0  0  0  0  0  0  0  0
   -4.5740    1.8376    4.3448 O   0  0  0  0  0  0  0  0  0  0  0  0
   -4.5813    0.2244    2.5415 C   0  0  0  0  0  0  0  0  0  0  0  0
   -4.5463   -2.0191    0.2490 H   0  0  0  0  0  0  0  0  0  0  0  0
   -4.9947    1.8507    5.2286 H   0  0  0  0  0  0  0  0  0  0  0  0
   -4.5473    2.4912    1.2088 C   0  0  0  0  0  0  0  0  0  0  0  0
   -4.5138    2.9862   -0.2408 C   0  0  0  0  0  0  0  0  0  0  0  0
   -3.3390    4.9484   -1.2956 C   0  0  0  0  0  0  0  0  0  0  0  0
   -3.1873    3.6471   -0.5752 N   0  0  0  0  0  0  0  0  0  0  0  0
   -2.2326    2.7190   -1.2667 C   0  0  0  0  0  0  0  0  0  0  0  0
   -2.7340    3.8792    0.3304 H   0  0  0  0  0  0  0  0  0  0  0  0
 15 16  1  0
 16 17  1  0
 16 14  1  0
 14 13  1  0
 13  1  1  0
  1  2  2  0
  2  3  1  0
  3  4  1  0
  4  5  2  0
  5  6  1  0
  6  7  2  0
  7  8  1  0
  8  9  1  0
  8 10  2  0
 10  1  1  0
 10  4  1  0
 16 18  1  0
  3 11  1  0
  9 12  1  0
M  CHG 1  16   1
M  END
> <input_smiles>
CN(C)CCc1c[nH]c2cccc(O)c12

> <prot_variant_index>
3

> <minimizedAffinity>
0.00000

> <CNNscore>
0.5606552958

> <CNNaffinity>
3.1269485950

> <CNN_VS>
1.7531403303

> <CNNaffinity_variance>
0.4958095253

$$$$
Psilocin__p3


 18 19  0  0  0  0  0  0  0  0999 V2000
   -1.5342   -2.4455   -4.8725 C   0  0  0  0  0  0  0  0  0  0  0  0
   -2.6619   -3.1117   -5.3129 C   0  0  0  0  0  0  0  0  0  0  0  0
   -2.6599   -4.3714   -4.7758 N   0  0  0  0  0  0  0  0  0  0  0  0
   -1.5372   -4.5533   -4.0032 C   0  0  0  0  0  0  0  0  0  0  0  0
   -1.1267   -5.6719   -3.2678 C   0  0  0  0  0  0  0  0  0  0  0  0
    0.0709   -5.5788   -2.5524 C   0  0  0  0  0  0  0  0  0  0  0  0
    0.8340   -4.4141   -2.5743 C   0  0  0  0  0  0  0  0  0  0  0  0
    0.4041   -3.3100   -3.3163 C   0  0  0  0  0  0  0  0  0  0  0  0
    1.1921   -2.1799   -3.3669 O   0  0  0  0  0  0  0  0  0  0  0  0
   -0.8053   -3.3655   -4.0444 C   0  0  0  0  0  0  0  0  0  0  0  0
   -3.3843   -5.0662   -4.9085 H   0  0  0  0  0  0  0  0  0  0  0  0
    1.7284   -2.1919   -2.5479 H   0  0  0  0  0  0  0  0  0  0  0  0
   -1.1795   -1.0255   -5.1847 C   0  0  0  0  0  0  0  0  0  0  0  0
   -0.9405   -0.7662   -6.6757 C   0  0  0  0  0  0  0  0  0  0  0  0
    0.9360    0.7164   -7.4654 C   0  0  0  0  0  0  0  0  0  0  0  0
   -0.4570    0.6522   -6.9259 N   0  0  0  0  0  0  0  0  0  0  0  0
   -0.6528    1.5514   -5.7409 C   0  0  0  0  0  0  0  0  0  0  0  0
   -1.0646    1.0466   -7.6706 H   0  0  0  0  0  0  0  0  0  0  0  0
 15 16  1  0
 16 17  1  0
 16 14  1  0
 14 13  1  0
 13  1  1  0
  1  2  2  0
  2  3  1  0
  3  4  1  0
  4  5  2  0
  5  6  1  0
  6  7  2  0
  7  8  1  0
  8  9  1  0
  8 10  2  0
 10  1  1  0
 10  4  1  0
 16 18  1  0
  3 11  1  0
  9 12  1  0
M  CHG 1  16   1
M  END
> <input_smiles>
CN(C)CCc1c[nH]c2cccc(O)c12

> <prot_variant_index>
3

> <minimizedAffinity>
0.00000

> <CNNscore>
0.5606316328

> <CNNaffinity>
3.1776523590

> <CNN_VS>
1.7814924717

> <CNNaffinity_variance>
0.3247948587

$$$$
Psilocin__p3


 18 19  0  0  0  0  0  0  0  0999 V2000
   -2.9691   -1.1895   -0.7071 C   0  0  0  0  0  0  0  0  0  0  0  0
   -2.7835   -2.5324   -0.9743 C   0  0  0  0  0  0  0  0  0  0  0  0
   -2.6361   -3.1956    0.2148 N   0  0  0  0  0  0  0  0  0  0  0  0
   -2.7018   -2.3071    1.2620 C   0  0  0  0  0  0  0  0  0  0  0  0
   -2.6067   -2.5371    2.6400 C   0  0  0  0  0  0  0  0  0  0  0  0
   -2.7211   -1.4365    3.4945 C   0  0  0  0  0  0  0  0  0  0  0  0
   -2.9176   -0.1524    2.9925 C   0  0  0  0  0  0  0  0  0  0  0  0
   -3.0088    0.0527    1.6126 C   0  0  0  0  0  0  0  0  0  0  0  0
   -3.1565    1.3346    1.1271 O   0  0  0  0  0  0  0  0  0  0  0  0
   -2.9063   -1.0373    0.7198 C   0  0  0  0  0  0  0  0  0  0  0  0
   -2.5145   -4.1956    0.3170 H   0  0  0  0  0  0  0  0  0  0  0  0
   -3.5775    1.8459    1.8480 H   0  0  0  0  0  0  0  0  0  0  0  0
   -3.2201   -0.1218   -1.7254 C   0  0  0  0  0  0  0  0  0  0  0  0
   -1.9501    0.6074   -2.1759 C   0  0  0  0  0  0  0  0  0  0  0  0
    0.0203   -0.7376   -2.9832 C   0  0  0  0  0  0  0  0  0  0  0  0
   -1.2835   -0.1005   -3.3433 N   0  0  0  0  0  0  0  0  0  0  0  0
   -1.1790    0.7638   -4.5653 C   0  0  0  0  0  0  0  0  0  0  0  0
   -1.9118   -0.8820   -3.6152 H   0  0  0  0  0  0  0  0  0  0  0  0
 15 16  1  0
 16 17  1  0
 16 14  1  0
 14 13  1  0
 13  1  1  0
  1  2  2  0
  2  3  1  0
  3  4  1  0
  4  5  2  0
  5  6  1  0
  6  7  2  0
  7  8  1  0
  8  9  1  0
  8 10  2  0
 10  1  1  0
 10  4  1  0
 16 18  1  0
  3 11  1  0
  9 12  1  0
M  CHG 1  16   1
M  END
> <input_smiles>
CN(C)CCc1c[nH]c2cccc(O)c12

> <prot_variant_index>
3

> <minimizedAffinity>
0.00000

> <CNNscore>
0.5507423878

> <CNNaffinity>
3.1249945164

> <CNN_VS>
1.7210669518

> <CNNaffinity_variance>
0.4605458677

$$$$
Psilocin__p3


 18 19  0  0  0  0  0  0  0  0999 V2000
    2.4939    3.2037   -3.6327 C   0  0  0  0  0  0  0  0  0  0  0  0
    1.8425    2.6755   -4.7309 C   0  0  0  0  0  0  0  0  0  0  0  0
    2.1530    1.3448   -4.8217 N   0  0  0  0  0  0  0  0  0  0  0  0
    3.0156    0.9914   -3.8110 C   0  0  0  0  0  0  0  0  0  0  0  0
    3.5877   -0.2517   -3.5146 C   0  0  0  0  0  0  0  0  0  0  0  0
    4.4338   -0.3325   -2.4045 C   0  0  0  0  0  0  0  0  0  0  0  0
    4.7038    0.7874   -1.6219 C   0  0  0  0  0  0  0  0  0  0  0  0
    4.1213    2.0183   -1.9378 C   0  0  0  0  0  0  0  0  0  0  0  0
    4.4337    3.1288   -1.1828 O   0  0  0  0  0  0  0  0  0  0  0  0
    3.2545    2.1350   -3.0473 C   0  0  0  0  0  0  0  0  0  0  0  0
    1.7903    0.7045   -5.5171 H   0  0  0  0  0  0  0  0  0  0  0  0
    4.6985    2.7879   -0.3041 H   0  0  0  0  0  0  0  0  0  0  0  0
    2.3846    4.6148   -3.1462 C   0  0  0  0  0  0  0  0  0  0  0  0
    3.4884    5.5346   -3.6782 C   0  0  0  0  0  0  0  0  0  0  0  0
    3.9492    5.6225   -6.1527 C   0  0  0  0  0  0  0  0  0  0  0  0
    3.1153    6.1356   -5.0228 N   0  0  0  0  0  0  0  0  0  0  0  0
    3.0531    7.6344   -4.9933 C   0  0  0  0  0  0  0  0  0  0  0  0
    2.1448    5.8266   -5.2277 H   0  0  0  0  0  0  0  0  0  0  0  0
 15 16  1  0
 16 17  1  0
 16 14  1  0
 14 13  1  0
 13  1  1  0
  1  2  2  0
  2  3  1  0
  3  4  1  0
  4  5  2  0
  5  6  1  0
  6  7  2  0
  7  8  1  0
  8  9  1  0
  8 10  2  0
 10  1  1  0
 10  4  1  0
 16 18  1  0
  3 11  1  0
  9 12  1  0
M  CHG 1  16   1
M  END
> <input_smiles>
CN(C)CCc1c[nH]c2cccc(O)c12

> <prot_variant_index>
3

> <minimizedAffinity>
0.00000

> <CNNscore>
0.5494081974

> <CNNaffinity>
3.0535030365

> <CNN_VS>
1.6776195765

> <CNNaffinity_variance>
0.5385549664

$$$$
Psilocin__p3


 18 19  0  0  0  0  0  0  0  0999 V2000
    0.6883    3.9596   -4.2476 C   0  0  0  0  0  0  0  0  0  0  0  0
    0.0369    3.4314   -5.3459 C   0  0  0  0  0  0  0  0  0  0  0  0
    0.3474    2.1007   -5.4366 N   0  0  0  0  0  0  0  0  0  0  0  0
    1.2100    1.7473   -4.4260 C   0  0  0  0  0  0  0  0  0  0  0  0
    1.7821    0.5042   -4.1295 C   0  0  0  0  0  0  0  0  0  0  0  0
    2.6282    0.4234   -3.0195 C   0  0  0  0  0  0  0  0  0  0  0  0
    2.8982    1.5433   -2.2369 C   0  0  0  0  0  0  0  0  0  0  0  0
    2.3157    2.7743   -2.5528 C   0  0  0  0  0  0  0  0  0  0  0  0
    2.6281    3.8847   -1.7978 O   0  0  0  0  0  0  0  0  0  0  0  0
    1.4489    2.8910   -3.6623 C   0  0  0  0  0  0  0  0  0  0  0  0
   -0.0153    1.4604   -6.1320 H   0  0  0  0  0  0  0  0  0  0  0  0
    2.8929    3.5438   -0.9191 H   0  0  0  0  0  0  0  0  0  0  0  0
    0.5790    5.3707   -3.7611 C   0  0  0  0  0  0  0  0  0  0  0  0
   -0.8139    5.9797   -3.9526 C   0  0  0  0  0  0  0  0  0  0  0  0
   -2.6023    6.9729   -2.4835 C   0  0  0  0  0  0  0  0  0  0  0  0
   -1.1513    6.9623   -2.8440 N   0  0  0  0  0  0  0  0  0  0  0  0
   -0.6172    8.3400   -3.1049 C   0  0  0  0  0  0  0  0  0  0  0  0
   -0.6535    6.6336   -1.9934 H   0  0  0  0  0  0  0  0  0  0  0  0
 15 16  1  0
 16 17  1  0
 16 14  1  0
 14 13  1  0
 13  1  1  0
  1  2  2  0
  2  3  1  0
  3  4  1  0
  4  5  2  0
  5  6  1  0
  6  7  2  0
  7  8  1  0
  8  9  1  0
  8 10  2  0
 10  1  1  0
 10  4  1  0
 16 18  1  0
  3 11  1  0
  9 12  1  0
M  CHG 1  16   1
M  END
> <input_smiles>
CN(C)CCc1c[nH]c2cccc(O)c12

> <prot_variant_index>
3

> <minimizedAffinity>
0.00000

> <CNNscore>
0.5457696319

> <CNNaffinity>
3.0800836086

> <CNN_VS>
1.6810160875

> <CNNaffinity_variance>
0.4555000067

$$$$
Psilocin__p3


 18 19  0  0  0  0  0  0  0  0999 V2000
   -1.1823    2.7311   -2.3920 C   0  0  0  0  0  0  0  0  0  0  0  0
   -1.7506    1.9297   -3.3637 C   0  0  0  0  0  0  0  0  0  0  0  0
   -0.8051    1.6689   -4.3194 N   0  0  0  0  0  0  0  0  0  0  0  0
    0.3732    2.3028   -4.0030 C   0  0  0  0  0  0  0  0  0  0  0  0
    1.5964    2.3133   -4.6843 C   0  0  0  0  0  0  0  0  0  0  0  0
    2.6492    3.0429   -4.1238 C   0  0  0  0  0  0  0  0  0  0  0  0
    2.4859    3.7412   -2.9300 C   0  0  0  0  0  0  0  0  0  0  0  0
    1.2549    3.7164   -2.2679 C   0  0  0  0  0  0  0  0  0  0  0  0
    1.0931    4.4497   -1.1117 O   0  0  0  0  0  0  0  0  0  0  0  0
    0.1716    2.9827   -2.8007 C   0  0  0  0  0  0  0  0  0  0  0  0
   -0.9407    1.0817   -5.1330 H   0  0  0  0  0  0  0  0  0  0  0  0
    1.9890    4.5445   -0.7285 H   0  0  0  0  0  0  0  0  0  0  0  0
   -1.8584    3.2051   -1.1438 C   0  0  0  0  0  0  0  0  0  0  0  0
   -1.5439    2.3492    0.0875 C   0  0  0  0  0  0  0  0  0  0  0  0
   -3.8773    1.4181   -0.0903 C   0  0  0  0  0  0  0  0  0  0  0  0
   -2.4330    1.1191    0.1549 N   0  0  0  0  0  0  0  0  0  0  0  0
   -2.2200    0.3146    1.4034 C   0  0  0  0  0  0  0  0  0  0  0  0
   -2.1395    0.4968   -0.6236 H   0  0  0  0  0  0  0  0  0  0  0  0
 15 16  1  0
 16 17  1  0
 16 14  1  0
 14 13  1  0
 13  1  1  0
  1  2  2  0
  2  3  1  0
  3  4  1  0
  4  5  2  0
  5  6  1  0
  6  7  2  0
  7  8  1  0
  8  9  1  0
  8 10  2  0
 10  1  1  0
 10  4  1  0
 16 18  1  0
  3 11  1  0
  9 12  1  0
M  CHG 1  16   1
M  END
> <input_smiles>
CN(C)CCc1c[nH]c2cccc(O)c12

> <prot_variant_index>
3

> <minimizedAffinity>
0.00000

> <CNNscore>
0.5448967814

> <CNNaffinity>
3.1567213535

> <CNN_VS>
1.7200872898

> <CNNaffinity_variance>
0.7853584886

$$$$
Psilocin__p3


 18 19  0  0  0  0  0  0  0  0999 V2000
    1.4682    3.8313   -3.8483 C   0  0  0  0  0  0  0  0  0  0  0  0
    0.9958    3.4976   -5.1033 C   0  0  0  0  0  0  0  0  0  0  0  0
    0.8005    2.1428   -5.1479 N   0  0  0  0  0  0  0  0  0  0  0  0
    1.1560    1.5749   -3.9473 C   0  0  0  0  0  0  0  0  0  0  0  0
    1.1189    0.2346   -3.5438 C   0  0  0  0  0  0  0  0  0  0  0  0
    1.5340   -0.0669   -2.2432 C   0  0  0  0  0  0  0  0  0  0  0  0
    1.9753    0.9316   -1.3785 C   0  0  0  0  0  0  0  0  0  0  0  0
    2.0040    2.2629   -1.8040 C   0  0  0  0  0  0  0  0  0  0  0  0
    2.4869    3.2351   -0.9540 O   0  0  0  0  0  0  0  0  0  0  0  0
    1.5838    2.6054   -3.1086 C   0  0  0  0  0  0  0  0  0  0  0  0
    0.4316    1.6297   -5.9389 H   0  0  0  0  0  0  0  0  0  0  0  0
    2.3534    2.8879   -0.0485 H   0  0  0  0  0  0  0  0  0  0  0  0
    1.7630    5.2166   -3.3648 C   0  0  0  0  0  0  0  0  0  0  0  0
    1.1984    6.3159   -4.2704 C   0  0  0  0  0  0  0  0  0  0  0  0
    1.8982    8.6161   -5.0203 C   0  0  0  0  0  0  0  0  0  0  0  0
    2.3018    7.1869   -4.8465 N   0  0  0  0  0  0  0  0  0  0  0  0
    2.9095    6.6094   -6.0908 C   0  0  0  0  0  0  0  0  0  0  0  0
    3.0698    7.1956   -4.1469 H   0  0  0  0  0  0  0  0  0  0  0  0
 15 16  1  0
 16 17  1  0
 16 14  1  0
 14 13  1  0
 13  1  1  0
  1  2  2  0
  2  3  1  0
  3  4  1  0
  4  5  2  0
  5  6  1  0
  6  7  2  0
  7  8  1  0
  8  9  1  0
  8 10  2  0
 10  1  1  0
 10  4  1  0
 16 18  1  0
  3 11  1  0
  9 12  1  0
M  CHG 1  16   1
M  END
> <input_smiles>
CN(C)CCc1c[nH]c2cccc(O)c12

> <prot_variant_index>
3

> <minimizedAffinity>
0.00000

> <CNNscore>
0.5419310927

> <CNNaffinity>
3.0248959064

> <CNN_VS>
1.6392850876

> <CNNaffinity_variance>
0.4316381216

$$$$
Psilocin__p3


 18 19  0  0  0  0  0  0  0  0999 V2000
    3.0747    2.3653   -2.1461 C   0  0  0  0  0  0  0  0  0  0  0  0
    2.3536    2.1664   -3.3079 C   0  0  0  0  0  0  0  0  0  0  0  0
    1.6387    1.0051   -3.1821 N   0  0  0  0  0  0  0  0  0  0  0  0
    1.8928    0.4242   -1.9621 C   0  0  0  0  0  0  0  0  0  0  0  0
    1.3848   -0.7574   -1.4087 C   0  0  0  0  0  0  0  0  0  0  0  0
    1.8104   -1.1124   -0.1251 C   0  0  0  0  0  0  0  0  0  0  0  0
    2.7142   -0.3202    0.5785 C   0  0  0  0  0  0  0  0  0  0  0  0
    3.2083    0.8551    0.0051 C   0  0  0  0  0  0  0  0  0  0  0  0
    4.1378    1.6054    0.6934 O   0  0  0  0  0  0  0  0  0  0  0  0
    2.7936    1.2492   -1.2866 C   0  0  0  0  0  0  0  0  0  0  0  0
    1.0006    0.6319   -3.8739 H   0  0  0  0  0  0  0  0  0  0  0  0
    3.9953    1.4030    1.6406 H   0  0  0  0  0  0  0  0  0  0  0  0
    3.9482    3.5439   -1.8499 C   0  0  0  0  0  0  0  0  0  0  0  0
    4.2174    4.4303   -3.0703 C   0  0  0  0  0  0  0  0  0  0  0  0
    6.5947    4.8650   -2.3614 C   0  0  0  0  0  0  0  0  0  0  0  0
    5.2919    5.4653   -2.7831 N   0  0  0  0  0  0  0  0  0  0  0  0
    4.8282    6.5410   -1.8455 C   0  0  0  0  0  0  0  0  0  0  0  0
    5.4846    5.9510   -3.6811 H   0  0  0  0  0  0  0  0  0  0  0  0
 15 16  1  0
 16 17  1  0
 16 14  1  0
 14 13  1  0
 13  1  1  0
  1  2  2  0
  2  3  1  0
  3  4  1  0
  4  5  2  0
  5  6  1  0
  6  7  2  0
  7  8  1  0
  8  9  1  0
  8 10  2  0
 10  1  1  0
 10  4  1  0
 16 18  1  0
  3 11  1  0
  9 12  1  0
M  CHG 1  16   1
M  END
> <input_smiles>
CN(C)CCc1c[nH]c2cccc(O)c12

> <prot_variant_index>
3

> <minimizedAffinity>
0.00000

> <CNNscore>
0.5339963436

> <CNNaffinity>
2.9836571217

> <CNN_VS>
1.5932619572

> <CNNaffinity_variance>
0.3490142524

$$$$
Psilocin__p3


 18 19  0  0  0  0  0  0  0  0999 V2000
   -1.5342    5.4030   -4.8725 C   0  0  0  0  0  0  0  0  0  0  0  0
   -2.5245    4.7886   -5.6149 C   0  0  0  0  0  0  0  0  0  0  0  0
   -2.2493    3.4487   -5.6817 N   0  0  0  0  0  0  0  0  0  0  0  0
   -1.0812    3.1727   -5.0110 C   0  0  0  0  0  0  0  0  0  0  0  0
   -0.4257    1.9506   -4.8178 C   0  0  0  0  0  0  0  0  0  0  0  0
    0.7586    1.9557   -4.0748 C   0  0  0  0  0  0  0  0  0  0  0  0
    1.2732    3.1379   -3.5484 C   0  0  0  0  0  0  0  0  0  0  0  0
    0.6013    4.3463   -3.7549 C   0  0  0  0  0  0  0  0  0  0  0  0
    1.1460    5.5155   -3.2681 O   0  0  0  0  0  0  0  0  0  0  0  0
   -0.6026    4.3775   -4.4935 C   0  0  0  0  0  0  0  0  0  0  0  0
   -2.8260    2.7541   -6.1401 H   0  0  0  0  0  0  0  0  0  0  0  0
    1.7081    5.2529   -2.5108 H   0  0  0  0  0  0  0  0  0  0  0  0
   -1.4825    6.8556   -4.5159 C   0  0  0  0  0  0  0  0  0  0  0  0
   -2.7981    7.5977   -4.7728 C   0  0  0  0  0  0  0  0  0  0  0  0
   -1.1623    9.4855   -5.0944 C   0  0  0  0  0  0  0  0  0  0  0  0
   -2.5546    8.9919   -5.3251 N   0  0  0  0  0  0  0  0  0  0  0  0
   -3.5922    9.9820   -4.8842 C   0  0  0  0  0  0  0  0  0  0  0  0
   -2.6615    8.9262   -6.3564 H   0  0  0  0  0  0  0  0  0  0  0  0
 15 16  1  0
 16 17  1  0
 16 14  1  0
 14 13  1  0
 13  1  1  0
  1  2  2  0
  2  3  1  0
  3  4  1  0
  4  5  2  0
  5  6  1  0
  6  7  2  0
  7  8  1  0
  8  9  1  0
  8 10  2  0
 10  1  1  0
 10  4  1  0
 16 18  1  0
  3 11  1  0
  9 12  1  0
M  CHG 1  16   1
M  END
> <input_smiles>
CN(C)CCc1c[nH]c2cccc(O)c12

> <prot_variant_index>
3

> <minimizedAffinity>
0.00000

> <CNNscore>
0.5227953196

> <CNNaffinity>
3.0574741364

> <CNN_VS>
1.5984331369

> <CNNaffinity_variance>
0.4501864910

$$$$
Psilocin__p3


 18 19  0  0  0  0  0  0  0  0999 V2000
   -9.0252    1.3748   -2.5037 C   0  0  0  0  0  0  0  0  0  0  0  0
  -10.0245    1.3081   -1.5516 C   0  0  0  0  0  0  0  0  0  0  0  0
  -10.3185    2.5809   -1.1405 N   0  0  0  0  0  0  0  0  0  0  0  0
   -9.5140    3.4852   -1.7928 C   0  0  0  0  0  0  0  0  0  0  0  0
   -9.4683    4.8809   -1.6908 C   0  0  0  0  0  0  0  0  0  0  0  0
   -8.5470    5.5637   -2.4906 C   0  0  0  0  0  0  0  0  0  0  0  0
   -7.6984    4.8787   -3.3566 C   0  0  0  0  0  0  0  0  0  0  0  0
   -7.7619    3.4847   -3.4409 C   0  0  0  0  0  0  0  0  0  0  0  0
   -6.8844    2.8157   -4.2674 O   0  0  0  0  0  0  0  0  0  0  0  0
   -8.6865    2.7626   -2.6538 C   0  0  0  0  0  0  0  0  0  0  0  0
  -11.0342    2.8291   -0.4688 H   0  0  0  0  0  0  0  0  0  0  0  0
   -6.6312    3.4570   -4.9624 H   0  0  0  0  0  0  0  0  0  0  0  0
   -8.4468    0.2119   -3.2473 C   0  0  0  0  0  0  0  0  0  0  0  0
   -7.4998   -0.6469   -2.4028 C   0  0  0  0  0  0  0  0  0  0  0  0
   -5.1846    0.3411   -2.3194 C   0  0  0  0  0  0  0  0  0  0  0  0
   -6.5065    0.2076   -1.6337 N   0  0  0  0  0  0  0  0  0  0  0  0
   -6.3667   -0.2106   -0.1996 C   0  0  0  0  0  0  0  0  0  0  0  0
   -6.9031    1.1673   -1.6002 H   0  0  0  0  0  0  0  0  0  0  0  0
 15 16  1  0
 16 17  1  0
 16 14  1  0
 14 13  1  0
 13  1  1  0
  1  2  2  0
  2  3  1  0
  3  4  1  0
  4  5  2  0
  5  6  1  0
  6  7  2  0
  7  8  1  0
  8  9  1  0
  8 10  2  0
 10  1  1  0
 10  4  1  0
 16 18  1  0
  3 11  1  0
  9 12  1  0
M  CHG 1  16   1
M  END
> <input_smiles>
CN(C)CCc1c[nH]c2cccc(O)c12

> <prot_variant_index>
3

> <minimizedAffinity>
0.00000

> <CNNscore>
0.5204861164

> <CNNaffinity>
3.0803070068

> <CNN_VS>
1.6032570601

> <CNNaffinity_variance>
0.7286872864

$$$$
DMT__p0


 16 17  0  0  0  0  0  0  0  0999 V2000
   -5.4980   -9.4037    5.3280 C   0  0  0  0  0  0  0  0  0  0  0  0
   -6.9525   -9.0388    5.2018 C   0  0  0  0  0  0  0  0  0  0  0  0
   -7.8538   -9.5382    6.1673 C   0  0  0  0  0  0  0  0  0  0  0  0
   -9.2132   -9.2434    6.1238 C   0  0  0  0  0  0  0  0  0  0  0  0
   -9.7328   -8.4339    5.1174 C   0  0  0  0  0  0  0  0  0  0  0  0
   -8.8408   -7.9281    4.1657 C   0  0  0  0  0  0  0  0  0  0  0  0
   -9.0926   -7.1153    3.0877 N   0  0  0  0  0  0  0  0  0  0  0  0
   -7.9363   -6.8519    2.4105 C   0  0  0  0  0  0  0  0  0  0  0  0
   -6.8929   -7.4909    3.0550 C   0  0  0  0  0  0  0  0  0  0  0  0
   -7.4689   -8.1972    4.1771 C   0  0  0  0  0  0  0  0  0  0  0  0
  -10.0071   -6.7668    2.8375 H   0  0  0  0  0  0  0  0  0  0  0  0
   -5.4382   -7.4777    2.6632 C   0  0  0  0  0  0  0  0  0  0  0  0
   -5.0203   -8.5818    1.6744 C   0  0  0  0  0  0  0  0  0  0  0  0
   -5.2893   -8.2464    0.2592 N   0  0  0  0  0  0  0  0  0  0  0  0
   -4.8603   -6.8861   -0.0718 C   0  0  0  0  0  0  0  0  0  0  0  0
   -4.6095   -9.2048   -0.6167 C   0  0  0  0  0  0  0  0  0  0  0  0
  1  2  1  0
  2  3  2  0
  3  4  1  0
  4  5  2  0
  5  6  1  0
  6  7  1  0
  7  8  1  0
  8  9  2  0
  9 12  1  0
 12 13  1  0
 13 14  1  0
 14 15  1  0
 14 16  1  0
  9 10  1  0
 10  2  1  0
 10  6  2  0
  7 11  1  0
M  END
> <input_smiles>
CN(C)CCc1c[nH]c2cccc(C)c12

> <prot_variant_index>
0

> <minimizedAffinity>
0.00000

> <CNNscore>
0.8424476385

> <CNNaffinity>
3.8961889744

> <CNN_VS>
3.2823352814

> <CNNaffinity_variance>
1.7232761383

$$$$
DMT__p0


 16 17  0  0  0  0  0  0  0  0999 V2000
   -5.6006   -1.0975   -0.9302 C   0  0  0  0  0  0  0  0  0  0  0  0
   -7.0693   -0.7926   -1.0501 C   0  0  0  0  0  0  0  0  0  0  0  0
   -7.8735   -1.6651   -1.8156 C   0  0  0  0  0  0  0  0  0  0  0  0
   -9.2405   -1.4555   -1.9717 C   0  0  0  0  0  0  0  0  0  0  0  0
   -9.8662   -0.3685   -1.3676 C   0  0  0  0  0  0  0  0  0  0  0  0
   -9.0745    0.4916   -0.5991 C   0  0  0  0  0  0  0  0  0  0  0  0
   -9.4409    1.6190    0.0942 N   0  0  0  0  0  0  0  0  0  0  0  0
   -8.3563    2.1678    0.7167 C   0  0  0  0  0  0  0  0  0  0  0  0
   -7.2489    1.3859    0.4433 C   0  0  0  0  0  0  0  0  0  0  0  0
   -7.7001    0.3134   -0.4145 C   0  0  0  0  0  0  0  0  0  0  0  0
  -10.3818    1.9845    0.1323 H   0  0  0  0  0  0  0  0  0  0  0  0
   -5.8383    1.6084    0.9234 C   0  0  0  0  0  0  0  0  0  0  0  0
   -4.9751    2.5034    0.0150 C   0  0  0  0  0  0  0  0  0  0  0  0
   -5.1671    3.9511    0.2498 N   0  0  0  0  0  0  0  0  0  0  0  0
   -5.1565    4.2801    1.6766 C   0  0  0  0  0  0  0  0  0  0  0  0
   -4.1193    4.7097   -0.4391 C   0  0  0  0  0  0  0  0  0  0  0  0
  1  2  1  0
  2  3  2  0
  3  4  1  0
  4  5  2  0
  5  6  1  0
  6  7  1  0
  7  8  1  0
  8  9  2  0
  9 12  1  0
 12 13  1  0
 13 14  1  0
 14 15  1  0
 14 16  1  0
  9 10  1  0
 10  2  1  0
 10  6  2  0
  7 11  1  0
M  END
> <input_smiles>
CN(C)CCc1c[nH]c2cccc(C)c12

> <prot_variant_index>
0

> <minimizedAffinity>
0.00000

> <CNNscore>
0.8172045946

> <CNNaffinity>
3.7116439342

> <CNN_VS>
3.0331723690

> <CNNaffinity_variance>
1.2676316500

$$$$
DMT__p0


 16 17  0  0  0  0  0  0  0  0999 V2000
   -6.2757    5.7415    5.7842 C   0  0  0  0  0  0  0  0  0  0  0  0
   -7.6130    6.4312    5.7635 C   0  0  0  0  0  0  0  0  0  0  0  0
   -7.9331    7.3025    6.8276 C   0  0  0  0  0  0  0  0  0  0  0  0
   -9.1468    7.9815    6.8802 C   0  0  0  0  0  0  0  0  0  0  0  0
  -10.0931    7.8244    5.8712 C   0  0  0  0  0  0  0  0  0  0  0  0
   -9.7746    6.9707    4.8097 C   0  0  0  0  0  0  0  0  0  0  0  0
  -10.5209    6.6484    3.7028 N   0  0  0  0  0  0  0  0  0  0  0  0
   -9.8368    5.7758    2.9056 C   0  0  0  0  0  0  0  0  0  0  0  0
   -8.6074    5.5205    3.4853 C   0  0  0  0  0  0  0  0  0  0  0  0
   -8.5657    6.2744    4.7179 C   0  0  0  0  0  0  0  0  0  0  0  0
  -11.4450    7.0097    3.5131 H   0  0  0  0  0  0  0  0  0  0  0  0
   -7.5225    4.6192    2.9557 C   0  0  0  0  0  0  0  0  0  0  0  0
   -7.0541    4.9367    1.5235 C   0  0  0  0  0  0  0  0  0  0  0  0
   -6.9550    3.7458    0.6519 N   0  0  0  0  0  0  0  0  0  0  0  0
   -7.1779    2.5038    1.3949 C   0  0  0  0  0  0  0  0  0  0  0  0
   -7.9260    3.8475   -0.4411 C   0  0  0  0  0  0  0  0  0  0  0  0
  1  2  1  0
  2  3  2  0
  3  4  1  0
  4  5  2  0
  5  6  1  0
  6  7  1  0
  7  8  1  0
  8  9  2  0
  9 12  1  0
 12 13  1  0
 13 14  1  0
 14 15  1  0
 14 16  1  0
  9 10  1  0
 10  2  1  0
 10  6  2  0
  7 11  1  0
M  END
> <input_smiles>
CN(C)CCc1c[nH]c2cccc(C)c12

> <prot_variant_index>
0

> <minimizedAffinity>
0.00000

> <CNNscore>
0.8001675606

> <CNNaffinity>
4.0713238716

> <CNN_VS>
3.2577412128

> <CNNaffinity_variance>
0.9330618978

$$$$
DMT__p0


 16 17  0  0  0  0  0  0  0  0999 V2000
   -4.3749    0.3340   -2.2870 C   0  0  0  0  0  0  0  0  0  0  0  0
   -4.3921    1.7461   -2.8069 C   0  0  0  0  0  0  0  0  0  0  0  0
   -3.1620    2.3470   -3.1527 C   0  0  0  0  0  0  0  0  0  0  0  0
   -3.0930    3.6469   -3.6447 C   0  0  0  0  0  0  0  0  0  0  0  0
   -4.2488    4.4036   -3.8173 C   0  0  0  0  0  0  0  0  0  0  0  0
   -5.4704    3.8074   -3.4863 C   0  0  0  0  0  0  0  0  0  0  0  0
   -6.7386    4.3287   -3.5646 N   0  0  0  0  0  0  0  0  0  0  0  0
   -7.6572    3.4099   -3.1439 C   0  0  0  0  0  0  0  0  0  0  0  0
   -6.9908    2.2510   -2.7898 C   0  0  0  0  0  0  0  0  0  0  0  0
   -5.5822    2.5038   -2.9937 C   0  0  0  0  0  0  0  0  0  0  0  0
   -6.9528    5.2615   -3.8879 H   0  0  0  0  0  0  0  0  0  0  0  0
   -7.6004    0.9741   -2.2724 C   0  0  0  0  0  0  0  0  0  0  0  0
   -7.9926   -0.0462   -3.3572 C   0  0  0  0  0  0  0  0  0  0  0  0
   -9.3278    0.1948   -3.9462 N   0  0  0  0  0  0  0  0  0  0  0  0
   -9.2409    0.6086   -5.3481 C   0  0  0  0  0  0  0  0  0  0  0  0
  -10.1444   -1.0175   -3.8396 C   0  0  0  0  0  0  0  0  0  0  0  0
  1  2  1  0
  2  3  2  0
  3  4  1  0
  4  5  2  0
  5  6  1  0
  6  7  1  0
  7  8  1  0
  8  9  2  0
  9 12  1  0
 12 13  1  0
 13 14  1  0
 14 15  1  0
 14 16  1  0
  9 10  1  0
 10  2  1  0
 10  6  2  0
  7 11  1  0
M  END
> <input_smiles>
CN(C)CCc1c[nH]c2cccc(C)c12

> <prot_variant_index>
0

> <minimizedAffinity>
0.00000

> <CNNscore>
0.7990258336

> <CNNaffinity>
3.9140241146

> <CNN_VS>
3.1274063587

> <CNNaffinity_variance>
1.4961158037

$$$$
DMT__p0


 16 17  0  0  0  0  0  0  0  0999 V2000
   -3.9962   -1.6903   -2.3173 C   0  0  0  0  0  0  0  0  0  0  0  0
   -5.4932   -1.8412   -2.2905 C   0  0  0  0  0  0  0  0  0  0  0  0
   -6.0578   -3.0113   -2.8437 C   0  0  0  0  0  0  0  0  0  0  0  0
   -7.4324   -3.2286   -2.8539 C   0  0  0  0  0  0  0  0  0  0  0  0
   -8.3042   -2.2899   -2.3089 C   0  0  0  0  0  0  0  0  0  0  0  0
   -7.7475   -1.1347   -1.7498 C   0  0  0  0  0  0  0  0  0  0  0  0
   -8.3776   -0.0700   -1.1536 N   0  0  0  0  0  0  0  0  0  0  0  0
   -7.4610    0.8531   -0.7378 C   0  0  0  0  0  0  0  0  0  0  0  0
   -6.1962    0.3904   -1.0519 C   0  0  0  0  0  0  0  0  0  0  0  0
   -6.3729   -0.8813   -1.7161 C   0  0  0  0  0  0  0  0  0  0  0  0
   -9.3784    0.0114   -1.0431 H   0  0  0  0  0  0  0  0  0  0  0  0
   -4.8834    1.0771   -0.7784 C   0  0  0  0  0  0  0  0  0  0  0  0
   -4.4118    2.0429   -1.8814 C   0  0  0  0  0  0  0  0  0  0  0  0
   -4.9926    3.3989   -1.7735 N   0  0  0  0  0  0  0  0  0  0  0  0
   -4.9678    3.8969   -0.3968 C   0  0  0  0  0  0  0  0  0  0  0  0
   -4.2624    4.3232   -2.6455 C   0  0  0  0  0  0  0  0  0  0  0  0
  1  2  1  0
  2  3  2  0
  3  4  1  0
  4  5  2  0
  5  6  1  0
  6  7  1  0
  7  8  1  0
  8  9  2  0
  9 12  1  0
 12 13  1  0
 13 14  1  0
 14 15  1  0
 14 16  1  0
  9 10  1  0
 10  2  1  0
 10  6  2  0
  7 11  1  0
M  END
> <input_smiles>
CN(C)CCc1c[nH]c2cccc(C)c12

> <prot_variant_index>
0

> <minimizedAffinity>
0.00000

> <CNNscore>
0.7977939248

> <CNNaffinity>
3.8546288013

> <CNN_VS>
3.0751993656

> <CNNaffinity_variance>
1.2771826982

$$$$
DMT__p0


 16 17  0  0  0  0  0  0  0  0999 V2000
   -5.1776    6.8237    4.8843 C   0  0  0  0  0  0  0  0  0  0  0  0
   -6.3216    7.7902    5.0324 C   0  0  0  0  0  0  0  0  0  0  0  0
   -6.2323    8.7847    6.0308 C   0  0  0  0  0  0  0  0  0  0  0  0
   -7.2451    9.7185    6.2288 C   0  0  0  0  0  0  0  0  0  0  0  0
   -8.3898    9.7038    5.4367 C   0  0  0  0  0  0  0  0  0  0  0  0
   -8.4765    8.7269    4.4390 C   0  0  0  0  0  0  0  0  0  0  0  0
   -9.4834    8.5003    3.5331 N   0  0  0  0  0  0  0  0  0  0  0  0
   -9.1697    7.4426    2.7281 C   0  0  0  0  0  0  0  0  0  0  0  0
   -7.9260    6.9626    3.0961 C   0  0  0  0  0  0  0  0  0  0  0  0
   -7.4798    7.7747    4.2056 C   0  0  0  0  0  0  0  0  0  0  0  0
  -10.3334    9.0433    3.4774 H   0  0  0  0  0  0  0  0  0  0  0  0
   -7.1796    5.8072    2.4816 C   0  0  0  0  0  0  0  0  0  0  0  0
   -6.2410    6.1827    1.3199 C   0  0  0  0  0  0  0  0  0  0  0  0
   -6.9466    6.4552    0.0489 N   0  0  0  0  0  0  0  0  0  0  0  0
   -6.0149    6.7436   -1.0433 C   0  0  0  0  0  0  0  0  0  0  0  0
   -7.7866    5.3089   -0.3092 C   0  0  0  0  0  0  0  0  0  0  0  0
  1  2  1  0
  2  3  2  0
  3  4  1  0
  4  5  2  0
  5  6  1  0
  6  7  1  0
  7  8  1  0
  8  9  2  0
  9 12  1  0
 12 13  1  0
 13 14  1  0
 14 15  1  0
 14 16  1  0
  9 10  1  0
 10  2  1  0
 10  6  2  0
  7 11  1  0
M  END
> <input_smiles>
CN(C)CCc1c[nH]c2cccc(C)c12

> <prot_variant_index>
0

> <minimizedAffinity>
0.00000

> <CNNscore>
0.7975092530

> <CNNaffinity>
3.9525330067

> <CNN_VS>
3.1521816254

> <CNNaffinity_variance>
1.4886544943

$$$$
DMT__p0


 16 17  0  0  0  0  0  0  0  0999 V2000
   -5.4980    6.2214    5.3280 C   0  0  0  0  0  0  0  0  0  0  0  0
   -6.9372    6.2429    4.8887 C   0  0  0  0  0  0  0  0  0  0  0  0
   -7.5847    7.4929    4.7792 C   0  0  0  0  0  0  0  0  0  0  0  0
   -8.9123    7.5985    4.3753 C   0  0  0  0  0  0  0  0  0  0  0  0
   -9.6513    6.4619    4.0590 C   0  0  0  0  0  0  0  0  0  0  0  0
   -9.0095    5.2226    4.1555 C   0  0  0  0  0  0  0  0  0  0  0  0
   -9.5056    3.9675    3.9013 N   0  0  0  0  0  0  0  0  0  0  0  0
   -8.5433    3.0229    4.1179 C   0  0  0  0  0  0  0  0  0  0  0  0
   -7.3812    3.6603    4.5124 C   0  0  0  0  0  0  0  0  0  0  0  0
   -7.6772    5.0747    4.5529 C   0  0  0  0  0  0  0  0  0  0  0  0
  -10.4505    3.7783    3.5981 H   0  0  0  0  0  0  0  0  0  0  0  0
   -6.0629    3.0165    4.8551 C   0  0  0  0  0  0  0  0  0  0  0  0
   -5.0998    2.8334    3.6674 C   0  0  0  0  0  0  0  0  0  0  0  0
   -5.3173    1.5802    2.9125 N   0  0  0  0  0  0  0  0  0  0  0  0
   -5.8558    1.8338    1.5747 C   0  0  0  0  0  0  0  0  0  0  0  0
   -4.0572    0.8397    2.8046 C   0  0  0  0  0  0  0  0  0  0  0  0
  1  2  1  0
  2  3  2  0
  3  4  1  0
  4  5  2  0
  5  6  1  0
  6  7  1  0
  7  8  1  0
  8  9  2  0
  9 12  1  0
 12 13  1  0
 13 14  1  0
 14 15  1  0
 14 16  1  0
  9 10  1  0
 10  2  1  0
 10  6  2  0
  7 11  1  0
M  END
> <input_smiles>
CN(C)CCc1c[nH]c2cccc(C)c12

> <prot_variant_index>
0

> <minimizedAffinity>
0.00000

> <CNNscore>
0.7944640517

> <CNNaffinity>
3.8941934109

> <CNN_VS>
3.0937967300

> <CNNaffinity_variance>
1.2044739723

$$$$
DMT__p0


 16 17  0  0  0  0  0  0  0  0999 V2000
   -1.8256    3.8797    1.4431 C   0  0  0  0  0  0  0  0  0  0  0  0
   -1.7973    4.1236   -0.0416 C   0  0  0  0  0  0  0  0  0  0  0  0
   -0.6659    4.7636   -0.5931 C   0  0  0  0  0  0  0  0  0  0  0  0
   -0.5607    5.0214   -1.9567 C   0  0  0  0  0  0  0  0  0  0  0  0
   -1.5780    4.6483   -2.8309 C   0  0  0  0  0  0  0  0  0  0  0  0
   -2.6953    4.0038   -2.2894 C   0  0  0  0  0  0  0  0  0  0  0  0
   -3.8196    3.5372   -2.9254 N   0  0  0  0  0  0  0  0  0  0  0  0
   -4.6734    2.9673   -2.0248 C   0  0  0  0  0  0  0  0  0  0  0  0
   -4.1034    3.0447   -0.7672 C   0  0  0  0  0  0  0  0  0  0  0  0
   -2.8369    3.7231   -0.9271 C   0  0  0  0  0  0  0  0  0  0  0  0
   -3.9841    3.6102   -3.9194 H   0  0  0  0  0  0  0  0  0  0  0  0
   -4.6867    2.5417    0.5276 C   0  0  0  0  0  0  0  0  0  0  0  0
   -4.5638    1.0228    0.7502 C   0  0  0  0  0  0  0  0  0  0  0  0
   -3.4343    0.6388    1.6245 N   0  0  0  0  0  0  0  0  0  0  0  0
   -3.8127   -0.4025    2.5818 C   0  0  0  0  0  0  0  0  0  0  0  0
   -2.3097    0.1732    0.8082 C   0  0  0  0  0  0  0  0  0  0  0  0
  1  2  1  0
  2  3  2  0
  3  4  1  0
  4  5  2  0
  5  6  1  0
  6  7  1  0
  7  8  1  0
  8  9  2  0
  9 12  1  0
 12 13  1  0
 13 14  1  0
 14 15  1  0
 14 16  1  0
  9 10  1  0
 10  2  1  0
 10  6  2  0
  7 11  1  0
M  END
> <input_smiles>
CN(C)CCc1c[nH]c2cccc(C)c12

> <prot_variant_index>
0

> <minimizedAffinity>
0.00000

> <CNNscore>
0.7788962722

> <CNNaffinity>
3.7293417454

> <CNN_VS>
2.9047703743

> <CNNaffinity_variance>
1.9453839064

$$$$
DMT__p0


 16 17  0  0  0  0  0  0  0  0999 V2000
   -2.5726   -0.2446   -2.6054 C   0  0  0  0  0  0  0  0  0  0  0  0
   -2.9680    1.0923   -3.1721 C   0  0  0  0  0  0  0  0  0  0  0  0
   -1.9668    1.8876   -3.7713 C   0  0  0  0  0  0  0  0  0  0  0  0
   -2.2515    3.1335   -4.3222 C   0  0  0  0  0  0  0  0  0  0  0  0
   -3.5484    3.6392   -4.3033 C   0  0  0  0  0  0  0  0  0  0  0  0
   -4.5449    2.8489   -3.7205 C   0  0  0  0  0  0  0  0  0  0  0  0
   -5.8855    3.1105   -3.5777 N   0  0  0  0  0  0  0  0  0  0  0  0
   -6.5089    2.0695   -2.9510 C   0  0  0  0  0  0  0  0  0  0  0  0
   -5.5694    1.0912   -2.6814 C   0  0  0  0  0  0  0  0  0  0  0  0
   -4.3007    1.5913   -3.1606 C   0  0  0  0  0  0  0  0  0  0  0  0
   -6.3384    3.9564   -3.8936 H   0  0  0  0  0  0  0  0  0  0  0  0
   -5.8055   -0.2334   -2.0035 C   0  0  0  0  0  0  0  0  0  0  0  0
   -7.1238   -0.3346   -1.2139 C   0  0  0  0  0  0  0  0  0  0  0  0
   -6.9354   -0.4209    0.2506 N   0  0  0  0  0  0  0  0  0  0  0  0
   -7.3484    0.8094    0.9289 C   0  0  0  0  0  0  0  0  0  0  0  0
   -7.6936   -1.5562    0.7835 C   0  0  0  0  0  0  0  0  0  0  0  0
  1  2  1  0
  2  3  2  0
  3  4  1  0
  4  5  2  0
  5  6  1  0
  6  7  1  0
  7  8  1  0
  8  9  2  0
  9 12  1  0
 12 13  1  0
 13 14  1  0
 14 15  1  0
 14 16  1  0
  9 10  1  0
 10  2  1  0
 10  6  2  0
  7 11  1  0
M  END
> <input_smiles>
CN(C)CCc1c[nH]c2cccc(C)c12

> <prot_variant_index>
0

> <minimizedAffinity>
0.00000

> <CNNscore>
0.7770034671

> <CNNaffinity>
3.5289962292

> <CNN_VS>
2.7420423031

> <CNNaffinity_variance>
0.7919060588

$$$$
DMT__p0


 16 17  0  0  0  0  0  0  0  0999 V2000
    1.9833    1.1755    2.4672 C   0  0  0  0  0  0  0  0  0  0  0  0
    2.0735    2.5392    1.8373 C   0  0  0  0  0  0  0  0  0  0  0  0
    3.1629    2.8099    0.9807 C   0  0  0  0  0  0  0  0  0  0  0  0
    3.3161    4.0441    0.3561 C   0  0  0  0  0  0  0  0  0  0  0  0
    2.3868    5.0614    0.5553 C   0  0  0  0  0  0  0  0  0  0  0  0
    1.3002    4.7929    1.3945 C   0  0  0  0  0  0  0  0  0  0  0  0
    0.2565    5.6117    1.7499 N   0  0  0  0  0  0  0  0  0  0  0  0
   -0.5964    4.9568    2.5916 C   0  0  0  0  0  0  0  0  0  0  0  0
   -0.1192    3.6743    2.7921 C   0  0  0  0  0  0  0  0  0  0  0  0
    1.1083    3.5658    2.0365 C   0  0  0  0  0  0  0  0  0  0  0  0
    0.1437    6.5632    1.4300 H   0  0  0  0  0  0  0  0  0  0  0  0
   -0.7381    2.5973    3.6446 C   0  0  0  0  0  0  0  0  0  0  0  0
   -1.7322    1.6777    2.9115 C   0  0  0  0  0  0  0  0  0  0  0  0
   -3.0880    2.2534    2.7775 N   0  0  0  0  0  0  0  0  0  0  0  0
   -4.0480    1.2775    2.2576 C   0  0  0  0  0  0  0  0  0  0  0  0
   -3.5469    2.7525    4.0768 C   0  0  0  0  0  0  0  0  0  0  0  0
  1  2  1  0
  2  3  2  0
  3  4  1  0
  4  5  2  0
  5  6  1  0
  6  7  1  0
  7  8  1  0
  8  9  2  0
  9 12  1  0
 12 13  1  0
 13 14  1  0
 14 15  1  0
 14 16  1  0
  9 10  1  0
 10  2  1  0
 10  6  2  0
  7 11  1  0
M  END
> <input_smiles>
CN(C)CCc1c[nH]c2cccc(C)c12

> <prot_variant_index>
0

> <minimizedAffinity>
0.00000

> <CNNscore>
0.7756462097

> <CNNaffinity>
3.9262506962

> <CNN_VS>
3.0453815460

> <CNNaffinity_variance>
1.6361618042

$$$$
DMT__p0


 16 17  0  0  0  0  0  0  0  0999 V2000
   -4.9699    5.2659    4.9372 C   0  0  0  0  0  0  0  0  0  0  0  0
   -6.4204    5.6594    4.8614 C   0  0  0  0  0  0  0  0  0  0  0  0
   -6.8548    6.7645    5.6255 C   0  0  0  0  0  0  0  0  0  0  0  0
   -8.1783    7.1945    5.6071 C   0  0  0  0  0  0  0  0  0  0  0  0
   -9.1260    6.5434    4.8221 C   0  0  0  0  0  0  0  0  0  0  0  0
   -8.6967    5.4552    4.0550 C   0  0  0  0  0  0  0  0  0  0  0  0
   -9.4202    4.6541    3.2059 N   0  0  0  0  0  0  0  0  0  0  0  0
   -8.6151    3.7018    2.6492 C   0  0  0  0  0  0  0  0  0  0  0  0
   -7.3291    3.8780    3.1266 C   0  0  0  0  0  0  0  0  0  0  0  0
   -7.3764    4.9953    4.0426 C   0  0  0  0  0  0  0  0  0  0  0  0
  -10.4083    4.7606    3.0250 H   0  0  0  0  0  0  0  0  0  0  0  0
   -6.1118    3.0600    2.7822 C   0  0  0  0  0  0  0  0  0  0  0  0
   -5.4719    3.3869    1.4202 C   0  0  0  0  0  0  0  0  0  0  0  0
   -5.4934    4.8268    1.0826 N   0  0  0  0  0  0  0  0  0  0  0  0
   -4.1782    5.4479    1.2507 C   0  0  0  0  0  0  0  0  0  0  0  0
   -5.9512    5.0070   -0.2979 C   0  0  0  0  0  0  0  0  0  0  0  0
  1  2  1  0
  2  3  2  0
  3  4  1  0
  4  5  2  0
  5  6  1  0
  6  7  1  0
  7  8  1  0
  8  9  2  0
  9 12  1  0
 12 13  1  0
 13 14  1  0
 14 15  1  0
 14 16  1  0
  9 10  1  0
 10  2  1  0
 10  6  2  0
  7 11  1  0
M  END
> <input_smiles>
CN(C)CCc1c[nH]c2cccc(C)c12

> <prot_variant_index>
0

> <minimizedAffinity>
0.00000

> <CNNscore>
0.7720053792

> <CNNaffinity>
3.7970199585

> <CNN_VS>
2.9313199520

> <CNNaffinity_variance>
1.5783081055

$$$$
DMT__p0


 16 17  0  0  0  0  0  0  0  0999 V2000
    0.5970    1.8477   -3.5664 C   0  0  0  0  0  0  0  0  0  0  0  0
    0.5764    2.7972   -2.3990 C   0  0  0  0  0  0  0  0  0  0  0  0
    0.9978    4.1280   -2.6115 C   0  0  0  0  0  0  0  0  0  0  0  0
    1.0042    5.0682   -1.5854 C   0  0  0  0  0  0  0  0  0  0  0  0
    0.5866    4.7232   -0.3029 C   0  0  0  0  0  0  0  0  0  0  0  0
    0.1577    3.4085   -0.0916 C   0  0  0  0  0  0  0  0  0  0  0  0
   -0.2999    2.8210    1.0624 N   0  0  0  0  0  0  0  0  0  0  0  0
   -0.6193    1.5127    0.8356 C   0  0  0  0  0  0  0  0  0  0  0  0
   -0.3815    1.2256   -0.4961 C   0  0  0  0  0  0  0  0  0  0  0  0
    0.1321    2.4363   -1.0961 C   0  0  0  0  0  0  0  0  0  0  0  0
   -0.3843    3.2964    1.9496 H   0  0  0  0  0  0  0  0  0  0  0  0
   -0.5935   -0.0930   -1.1934 C   0  0  0  0  0  0  0  0  0  0  0  0
    0.6098   -1.0531   -1.1501 C   0  0  0  0  0  0  0  0  0  0  0  0
    0.6920   -1.8486    0.0941 N   0  0  0  0  0  0  0  0  0  0  0  0
   -0.6045   -2.4183    0.4661 C   0  0  0  0  0  0  0  0  0  0  0  0
    1.6751   -2.9235   -0.0671 C   0  0  0  0  0  0  0  0  0  0  0  0
  1  2  1  0
  2  3  2  0
  3  4  1  0
  4  5  2  0
  5  6  1  0
  6  7  1  0
  7  8  1  0
  8  9  2  0
  9 12  1  0
 12 13  1  0
 13 14  1  0
 14 15  1  0
 14 16  1  0
  9 10  1  0
 10  2  1  0
 10  6  2  0
  7 11  1  0
M  END
> <input_smiles>
CN(C)CCc1c[nH]c2cccc(C)c12

> <prot_variant_index>
0

> <minimizedAffinity>
0.00000

> <CNNscore>
0.7672951221

> <CNNaffinity>
3.8791339397

> <CNN_VS>
2.9764406681

> <CNNaffinity_variance>
1.5521341562

$$$$
DMT__p0


 16 17  0  0  0  0  0  0  0  0999 V2000
   -2.9490    0.8440   -3.0844 C   0  0  0  0  0  0  0  0  0  0  0  0
   -3.6732    2.1618   -3.1430 C   0  0  0  0  0  0  0  0  0  0  0  0
   -2.9311    3.3195   -3.4636 C   0  0  0  0  0  0  0  0  0  0  0  0
   -3.5271    4.5747   -3.5424 C   0  0  0  0  0  0  0  0  0  0  0  0
   -4.8907    4.7296   -3.3087 C   0  0  0  0  0  0  0  0  0  0  0  0
   -5.6312    3.5830   -3.0020 C   0  0  0  0  0  0  0  0  0  0  0  0
   -6.9730    3.4636   -2.7348 N   0  0  0  0  0  0  0  0  0  0  0  0
   -7.2939    2.1599   -2.4852 C   0  0  0  0  0  0  0  0  0  0  0  0
   -6.1479    1.3943   -2.5993 C   0  0  0  0  0  0  0  0  0  0  0  0
   -5.0711    2.3048   -2.9176 C   0  0  0  0  0  0  0  0  0  0  0  0
   -7.6236    4.2363   -2.7254 H   0  0  0  0  0  0  0  0  0  0  0  0
   -6.0278   -0.0957   -2.4118 C   0  0  0  0  0  0  0  0  0  0  0  0
   -6.5095   -0.9427   -3.6043 C   0  0  0  0  0  0  0  0  0  0  0  0
   -5.4152   -1.4115   -4.4820 N   0  0  0  0  0  0  0  0  0  0  0  0
   -5.5957   -2.8081   -4.8834 C   0  0  0  0  0  0  0  0  0  0  0  0
   -5.3354   -0.5623   -5.6738 C   0  0  0  0  0  0  0  0  0  0  0  0
  1  2  1  0
  2  3  2  0
  3  4  1  0
  4  5  2  0
  5  6  1  0
  6  7  1  0
  7  8  1  0
  8  9  2  0
  9 12  1  0
 12 13  1  0
 13 14  1  0
 14 15  1  0
 14 16  1  0
  9 10  1  0
 10  2  1  0
 10  6  2  0
  7 11  1  0
M  END
> <input_smiles>
CN(C)CCc1c[nH]c2cccc(C)c12

> <prot_variant_index>
0

> <minimizedAffinity>
0.00000

> <CNNscore>
0.7631256580

> <CNNaffinity>
3.7076146603

> <CNN_VS>
2.8293759823

> <CNNaffinity_variance>
1.5483236313

$$$$
DMT__p0


 16 17  0  0  0  0  0  0  0  0999 V2000
   -2.9691   -1.1903   -1.1667 C   0  0  0  0  0  0  0  0  0  0  0  0
   -2.6269    0.1555   -1.7467 C   0  0  0  0  0  0  0  0  0  0  0  0
   -1.4079    0.2922   -2.4463 C   0  0  0  0  0  0  0  0  0  0  0  0
   -1.0206    1.5015   -3.0159 C   0  0  0  0  0  0  0  0  0  0  0  0
   -1.8342    2.6268   -2.9162 C   0  0  0  0  0  0  0  0  0  0  0  0
   -3.0478    2.4919   -2.2336 C   0  0  0  0  0  0  0  0  0  0  0  0
   -4.0195    3.4337   -1.9989 N   0  0  0  0  0  0  0  0  0  0  0  0
   -5.0517    2.8859   -1.2922 C   0  0  0  0  0  0  0  0  0  0  0  0
   -4.7689    1.5521   -1.0614 C   0  0  0  0  0  0  0  0  0  0  0  0
   -3.4747    1.2945   -1.6516 C   0  0  0  0  0  0  0  0  0  0  0  0
   -3.9694    4.3940   -2.3081 H   0  0  0  0  0  0  0  0  0  0  0  0
   -5.6249    0.5560   -0.3233 C   0  0  0  0  0  0  0  0  0  0  0  0
   -6.6185   -0.2260   -1.2024 C   0  0  0  0  0  0  0  0  0  0  0  0
   -7.8604    0.5187   -1.5038 N   0  0  0  0  0  0  0  0  0  0  0  0
   -8.8545   -0.3230   -2.1726 C   0  0  0  0  0  0  0  0  0  0  0  0
   -8.4269    1.0623   -0.2663 C   0  0  0  0  0  0  0  0  0  0  0  0
  1  2  1  0
  2  3  2  0
  3  4  1  0
  4  5  2  0
  5  6  1  0
  6  7  1  0
  7  8  1  0
  8  9  2  0
  9 12  1  0
 12 13  1  0
 13 14  1  0
 14 15  1  0
 14 16  1  0
  9 10  1  0
 10  2  1  0
 10  6  2  0
  7 11  1  0
M  END
> <input_smiles>
CN(C)CCc1c[nH]c2cccc(C)c12

> <prot_variant_index>
0

> <minimizedAffinity>
0.00000

> <CNNscore>
0.7616733313

> <CNNaffinity>
3.8438971043

> <CNN_VS>
2.9277939796

> <CNNaffinity_variance>
1.3549751043

$$$$
DMT__p0


 16 17  0  0  0  0  0  0  0  0999 V2000
   -1.9373    3.8803    1.4595 C   0  0  0  0  0  0  0  0  0  0  0  0
   -1.2896    4.3775    0.1954 C   0  0  0  0  0  0  0  0  0  0  0  0
    0.0299    4.8748    0.2705 C   0  0  0  0  0  0  0  0  0  0  0  0
    0.7004    5.3486   -0.8532 C   0  0  0  0  0  0  0  0  0  0  0  0
    0.0855    5.3436   -2.1022 C   0  0  0  0  0  0  0  0  0  0  0  0
   -1.2177    4.8412   -2.1822 C   0  0  0  0  0  0  0  0  0  0  0  0
   -2.0355    4.7238   -3.2792 N   0  0  0  0  0  0  0  0  0  0  0  0
   -3.2350    4.1775   -2.9219 C   0  0  0  0  0  0  0  0  0  0  0  0
   -3.2126    3.9150   -1.5642 C   0  0  0  0  0  0  0  0  0  0  0  0
   -1.9233    4.3524   -1.0786 C   0  0  0  0  0  0  0  0  0  0  0  0
   -1.7786    5.0052   -4.2148 H   0  0  0  0  0  0  0  0  0  0  0  0
   -4.3169    3.3096   -0.7373 C   0  0  0  0  0  0  0  0  0  0  0  0
   -5.4757    4.2658   -0.3991 C   0  0  0  0  0  0  0  0  0  0  0  0
   -5.0376    5.6407   -0.0745 N   0  0  0  0  0  0  0  0  0  0  0  0
   -5.8171    6.6482   -0.7966 C   0  0  0  0  0  0  0  0  0  0  0  0
   -5.1504    5.8709    1.3685 C   0  0  0  0  0  0  0  0  0  0  0  0
  1  2  1  0
  2  3  2  0
  3  4  1  0
  4  5  2  0
  5  6  1  0
  6  7  1  0
  7  8  1  0
  8  9  2  0
  9 12  1  0
 12 13  1  0
 13 14  1  0
 14 15  1  0
 14 16  1  0
  9 10  1  0
 10  2  1  0
 10  6  2  0
  7 11  1  0
M  END
> <input_smiles>
CN(C)CCc1c[nH]c2cccc(C)c12

> <prot_variant_index>
0

> <minimizedAffinity>
0.00000

> <CNNscore>
0.7590355277

> <CNNaffinity>
3.7819926739

> <CNN_VS>
2.8706667423

> <CNNaffinity_variance>
1.3009011745

$$$$
DMT__p0


 16 17  0  0  0  0  0  0  0  0999 V2000
   -5.1776   -0.9888    4.8843 C   0  0  0  0  0  0  0  0  0  0  0  0
   -3.9626   -0.2303    5.3460 C   0  0  0  0  0  0  0  0  0  0  0  0
   -3.3498   -0.6214    6.5566 C   0  0  0  0  0  0  0  0  0  0  0  0
   -2.2207    0.0256    7.0498 C   0  0  0  0  0  0  0  0  0  0  0  0
   -1.6507    1.0889    6.3550 C   0  0  0  0  0  0  0  0  0  0  0  0
   -2.2486    1.4716    5.1495 C   0  0  0  0  0  0  0  0  0  0  0  0
   -1.8867    2.4730    4.2822 N   0  0  0  0  0  0  0  0  0  0  0  0
   -2.7399    2.5105    3.2165 C   0  0  0  0  0  0  0  0  0  0  0  0
   -3.6808    1.5087    3.3700 C   0  0  0  0  0  0  0  0  0  0  0  0
   -3.3800    0.8450    4.6184 C   0  0  0  0  0  0  0  0  0  0  0  0
   -1.0996    3.0908    4.4209 H   0  0  0  0  0  0  0  0  0  0  0  0
   -4.8148    1.1760    2.4356 C   0  0  0  0  0  0  0  0  0  0  0  0
   -5.8920    2.2687    2.3044 C   0  0  0  0  0  0  0  0  0  0  0  0
   -6.3962    2.7664    3.6028 N   0  0  0  0  0  0  0  0  0  0  0  0
   -6.8398    4.1594    3.5200 C   0  0  0  0  0  0  0  0  0  0  0  0
   -7.5030    1.9229    4.0627 C   0  0  0  0  0  0  0  0  0  0  0  0
  1  2  1  0
  2  3  2  0
  3  4  1  0
  4  5  2  0
  5  6  1  0
  6  7  1  0
  7  8  1  0
  8  9  2  0
  9 12  1  0
 12 13  1  0
 13 14  1  0
 14 15  1  0
 14 16  1  0
  9 10  1  0
 10  2  1  0
 10  6  2  0
  7 11  1  0
M  END
> <input_smiles>
CN(C)CCc1c[nH]c2cccc(C)c12

> <prot_variant_index>
0

> <minimizedAffinity>
0.00000

> <CNNscore>
0.7537344694

> <CNNaffinity>
3.6909866333

> <CNN_VS>
2.7820239067

> <CNNaffinity_variance>
1.4942259789

$$$$
DMT__p0


 16 17  0  0  0  0  0  0  0  0999 V2000
   -5.4980   -9.4037    5.3280 C   0  0  0  0  0  0  0  0  0  0  0  0
   -6.9525   -9.0388    5.2018 C   0  0  0  0  0  0  0  0  0  0  0  0
   -7.8538   -9.5383    6.1673 C   0  0  0  0  0  0  0  0  0  0  0  0
   -9.2132   -9.2434    6.1238 C   0  0  0  0  0  0  0  0  0  0  0  0
   -9.7328   -8.4339    5.1174 C   0  0  0  0  0  0  0  0  0  0  0  0
   -8.8409   -7.9282    4.1657 C   0  0  0  0  0  0  0  0  0  0  0  0
   -9.0926   -7.1153    3.0877 N   0  0  0  0  0  0  0  0  0  0  0  0
   -7.9363   -6.8519    2.4105 C   0  0  0  0  0  0  0  0  0  0  0  0
   -6.8929   -7.4910    3.0550 C   0  0  0  0  0  0  0  0  0  0  0  0
   -7.4689   -8.1972    4.1771 C   0  0  0  0  0  0  0  0  0  0  0  0
  -10.0071   -6.7668    2.8375 H   0  0  0  0  0  0  0  0  0  0  0  0
   -5.4382   -7.4777    2.6632 C   0  0  0  0  0  0  0  0  0  0  0  0
   -4.6109   -6.3296    3.2707 C   0  0  0  0  0  0  0  0  0  0  0  0
   -4.3145   -5.2395    2.3159 N   0  0  0  0  0  0  0  0  0  0  0  0
   -4.3893   -5.6942    0.9260 C   0  0  0  0  0  0  0  0  0  0  0  0
   -5.2490   -4.1297    2.5227 C   0  0  0  0  0  0  0  0  0  0  0  0
  1  2  1  0
  2  3  2  0
  3  4  1  0
  4  5  2  0
  5  6  1  0
  6  7  1  0
  7  8  1  0
  8  9  2  0
  9 12  1  0
 12 13  1  0
 13 14  1  0
 14 15  1  0
 14 16  1  0
  9 10  1  0
 10  2  1  0
 10  6  2  0
  7 11  1  0
M  END
> <input_smiles>
CN(C)CCc1c[nH]c2cccc(C)c12

> <prot_variant_index>
0

> <minimizedAffinity>
0.00000

> <CNNscore>
0.7526040077

> <CNNaffinity>
3.7437574863

> <CNN_VS>
2.8175668716

> <CNNaffinity_variance>
1.1465612650

$$$$
DMT__p0


 16 17  0  0  0  0  0  0  0  0999 V2000
    0.5756    1.0088    2.3041 C   0  0  0  0  0  0  0  0  0  0  0  0
    0.6658    2.3726    1.6743 C   0  0  0  0  0  0  0  0  0  0  0  0
    1.7552    2.6433    0.8176 C   0  0  0  0  0  0  0  0  0  0  0  0
    1.9083    3.8774    0.1930 C   0  0  0  0  0  0  0  0  0  0  0  0
    0.9791    4.8948    0.3922 C   0  0  0  0  0  0  0  0  0  0  0  0
   -0.1075    4.6262    1.2314 C   0  0  0  0  0  0  0  0  0  0  0  0
   -1.1512    5.4451    1.5868 N   0  0  0  0  0  0  0  0  0  0  0  0
   -2.0041    4.7901    2.4286 C   0  0  0  0  0  0  0  0  0  0  0  0
   -1.5270    3.5077    2.6290 C   0  0  0  0  0  0  0  0  0  0  0  0
   -0.2994    3.3992    1.8735 C   0  0  0  0  0  0  0  0  0  0  0  0
   -1.2641    6.3966    1.2669 H   0  0  0  0  0  0  0  0  0  0  0  0
   -2.1458    2.4307    3.4816 C   0  0  0  0  0  0  0  0  0  0  0  0
   -3.3471    2.8836    4.3321 C   0  0  0  0  0  0  0  0  0  0  0  0
   -3.5355    2.0904    5.5661 N   0  0  0  0  0  0  0  0  0  0  0  0
   -2.2624    1.7939    6.2258 C   0  0  0  0  0  0  0  0  0  0  0  0
   -4.4142    2.8114    6.4913 C   0  0  0  0  0  0  0  0  0  0  0  0
  1  2  1  0
  2  3  2  0
  3  4  1  0
  4  5  2  0
  5  6  1  0
  6  7  1  0
  7  8  1  0
  8  9  2  0
  9 12  1  0
 12 13  1  0
 13 14  1  0
 14 15  1  0
 14 16  1  0
  9 10  1  0
 10  2  1  0
 10  6  2  0
  7 11  1  0
M  END
> <input_smiles>
CN(C)CCc1c[nH]c2cccc(C)c12

> <prot_variant_index>
0

> <minimizedAffinity>
0.00000

> <CNNscore>
0.7511283755

> <CNNaffinity>
3.7552540302

> <CNN_VS>
2.8206777573

> <CNNaffinity_variance>
0.4424779415

$$$$
DMT__p0


 16 17  0  0  0  0  0  0  0  0999 V2000
   -2.0641    4.0085   -0.1984 C   0  0  0  0  0  0  0  0  0  0  0  0
   -1.3273    4.2994   -1.4779 C   0  0  0  0  0  0  0  0  0  0  0  0
   -0.2407    5.2001   -1.4344 C   0  0  0  0  0  0  0  0  0  0  0  0
    0.4945    5.5183   -2.5724 C   0  0  0  0  0  0  0  0  0  0  0  0
    0.1806    4.9488   -3.8033 C   0  0  0  0  0  0  0  0  0  0  0  0
   -0.8882    4.0472   -3.8478 C   0  0  0  0  0  0  0  0  0  0  0  0
   -1.3937    3.3545   -4.9206 N   0  0  0  0  0  0  0  0  0  0  0  0
   -2.4449    2.5749   -4.5306 C   0  0  0  0  0  0  0  0  0  0  0  0
   -2.6366    2.7416   -3.1712 C   0  0  0  0  0  0  0  0  0  0  0  0
   -1.6481    3.6983   -2.7273 C   0  0  0  0  0  0  0  0  0  0  0  0
   -1.0334    3.4191   -5.8621 H   0  0  0  0  0  0  0  0  0  0  0  0
   -3.6808    2.0768   -2.3124 C   0  0  0  0  0  0  0  0  0  0  0  0
   -3.3716    0.6193   -1.9229 C   0  0  0  0  0  0  0  0  0  0  0  0
   -1.9414    0.3692   -1.6407 N   0  0  0  0  0  0  0  0  0  0  0  0
   -1.6791    0.2534   -0.2048 C   0  0  0  0  0  0  0  0  0  0  0  0
   -1.5068   -0.8537   -2.3215 C   0  0  0  0  0  0  0  0  0  0  0  0
  1  2  1  0
  2  3  2  0
  3  4  1  0
  4  5  2  0
  5  6  1  0
  6  7  1  0
  7  8  1  0
  8  9  2  0
  9 12  1  0
 12 13  1  0
 13 14  1  0
 14 15  1  0
 14 16  1  0
  9 10  1  0
 10  2  1  0
 10  6  2  0
  7 11  1  0
M  END
> <input_smiles>
CN(C)CCc1c[nH]c2cccc(C)c12

> <prot_variant_index>
0

> <minimizedAffinity>
0.00000

> <CNNscore>
0.7489495873

> <CNNaffinity>
3.8483581543

> <CNN_VS>
2.8822262287

> <CNNaffinity_variance>
2.2707605362

$$$$
DMT__p0


 16 17  0  0  0  0  0  0  0  0999 V2000
    0.2890    3.8313   -3.8483 C   0  0  0  0  0  0  0  0  0  0  0  0
   -0.0902    4.5459   -2.5794 C   0  0  0  0  0  0  0  0  0  0  0  0
   -1.3627    5.1539   -2.5086 C   0  0  0  0  0  0  0  0  0  0  0  0
   -1.7905    5.8297   -1.3697 C   0  0  0  0  0  0  0  0  0  0  0  0
   -0.9692    5.9253   -0.2496 C   0  0  0  0  0  0  0  0  0  0  0  0
    0.2877    5.3144   -0.3123 C   0  0  0  0  0  0  0  0  0  0  0  0
    1.2736    5.2601    0.6423 N   0  0  0  0  0  0  0  0  0  0  0  0
    2.3492    4.5599    0.1757 C   0  0  0  0  0  0  0  0  0  0  0  0
    2.0713    4.1294   -1.1088 C   0  0  0  0  0  0  0  0  0  0  0  0
    0.7524    4.6231   -1.4352 C   0  0  0  0  0  0  0  0  0  0  0  0
    1.2050    5.6822    1.5575 H   0  0  0  0  0  0  0  0  0  0  0  0
    2.9672    3.3201   -2.0099 C   0  0  0  0  0  0  0  0  0  0  0  0
    2.7971    1.7938   -1.8964 C   0  0  0  0  0  0  0  0  0  0  0  0
    3.5575    1.0330   -2.9116 N   0  0  0  0  0  0  0  0  0  0  0  0
    3.1223    1.3509   -4.2731 C   0  0  0  0  0  0  0  0  0  0  0  0
    4.9894    1.3134   -2.7735 C   0  0  0  0  0  0  0  0  0  0  0  0
  1  2  1  0
  2  3  2  0
  3  4  1  0
  4  5  2  0
  5  6  1  0
  6  7  1  0
  7  8  1  0
  8  9  2  0
  9 12  1  0
 12 13  1  0
 13 14  1  0
 14 15  1  0
 14 16  1  0
  9 10  1  0
 10  2  1  0
 10  6  2  0
  7 11  1  0
M  END
> <input_smiles>
CN(C)CCc1c[nH]c2cccc(C)c12

> <prot_variant_index>
0

> <minimizedAffinity>
0.00000

> <CNNscore>
0.7461025119

> <CNNaffinity>
3.8576023579

> <CNN_VS>
2.8781669140

> <CNNaffinity_variance>
0.7423788905

$$$$
DMT__p1


 17 18  0  0  0  0  0  0  0  0999 V2000
   -2.9490    0.8440   -3.0844 C   0  0  0  0  0  0  0  0  0  0  0  0
   -2.7939    0.2282   -1.7203 C   0  0  0  0  0  0  0  0  0  0  0  0
   -3.9636   -0.2523   -1.0890 C   0  0  0  0  0  0  0  0  0  0  0  0
   -3.9246   -0.8909    0.1452 C   0  0  0  0  0  0  0  0  0  0  0  0
   -2.7149   -1.0881    0.8010 C   0  0  0  0  0  0  0  0  0  0  0  0
   -1.5558   -0.6003    0.1892 C   0  0  0  0  0  0  0  0  0  0  0  0
   -0.2547   -0.7001    0.6187 N   0  0  0  0  0  0  0  0  0  0  0  0
    0.5753   -0.0508   -0.2489 C   0  0  0  0  0  0  0  0  0  0  0  0
   -0.1856    0.4663   -1.2820 C   0  0  0  0  0  0  0  0  0  0  0  0
   -1.5535    0.0751   -1.0369 C   0  0  0  0  0  0  0  0  0  0  0  0
    0.0339   -1.1894    1.4568 H   0  0  0  0  0  0  0  0  0  0  0  0
    0.3734    1.2957   -2.3999 C   0  0  0  0  0  0  0  0  0  0  0  0
    1.8598    1.6232   -2.1852 C   0  0  0  0  0  0  0  0  0  0  0  0
    2.4340    2.4005   -3.3631 N   0  0  0  0  0  0  0  0  0  0  0  0
    2.8846    3.7781   -2.9706 C   0  0  0  0  0  0  0  0  0  0  0  0
    3.5128    1.6510   -4.0869 C   0  0  0  0  0  0  0  0  0  0  0  0
    1.6601    2.5455   -4.0313 H   0  0  0  0  0  0  0  0  0  0  0  0
  1  2  1  0
  2  3  2  0
  3  4  1  0
  4  5  2  0
  5  6  1  0
  6  7  1  0
  7  8  1  0
  8  9  2  0
  9 12  1  0
 12 13  1  0
 13 14  1  0
 14 15  1  0
 14 16  1  0
  9 10  1  0
 10  2  1  0
 10  6  2  0
  7 11  1  0
 14 17  1  0
M  CHG 1  14   1
M  END
> <input_smiles>
CN(C)CCc1c[nH]c2cccc(C)c12

> <prot_variant_index>
1

> <minimizedAffinity>
0.00000

> <CNNscore>
0.6754798889

> <CNNaffinity>
3.2501757145

> <CNN_VS>
2.1954283714

> <CNNaffinity_variance>
0.6051491499

$$$$
DMT__p1


 17 18  0  0  0  0  0  0  0  0999 V2000
   -5.4328    5.4030    2.9476 C   0  0  0  0  0  0  0  0  0  0  0  0
   -5.5174    6.8756    2.6504 C   0  0  0  0  0  0  0  0  0  0  0  0
   -5.3559    7.7665    3.7357 C   0  0  0  0  0  0  0  0  0  0  0  0
   -5.3581    9.1458    3.5624 C   0  0  0  0  0  0  0  0  0  0  0  0
   -5.5113    9.6988    2.2962 C   0  0  0  0  0  0  0  0  0  0  0  0
   -5.6881    8.8229    1.2204 C   0  0  0  0  0  0  0  0  0  0  0  0
   -5.8256    9.1225   -0.1132 N   0  0  0  0  0  0  0  0  0  0  0  0
   -6.0207    7.9784   -0.8317 C   0  0  0  0  0  0  0  0  0  0  0  0
   -5.9876    6.9023    0.0369 C   0  0  0  0  0  0  0  0  0  0  0  0
   -5.7232    7.4300    1.3544 C   0  0  0  0  0  0  0  0  0  0  0  0
   -5.7833   10.0591   -0.4952 H   0  0  0  0  0  0  0  0  0  0  0  0
   -6.2214    5.4808   -0.3815 C   0  0  0  0  0  0  0  0  0  0  0  0
   -4.9107    4.7662   -0.7477 C   0  0  0  0  0  0  0  0  0  0  0  0
   -4.9605    4.2033   -2.1626 N   0  0  0  0  0  0  0  0  0  0  0  0
   -4.8208    5.2738   -3.2063 C   0  0  0  0  0  0  0  0  0  0  0  0
   -3.9834    3.0867   -2.3814 C   0  0  0  0  0  0  0  0  0  0  0  0
   -5.9072    3.8129   -2.2958 H   0  0  0  0  0  0  0  0  0  0  0  0
  1  2  1  0
  2  3  2  0
  3  4  1  0
  4  5  2  0
  5  6  1  0
  6  7  1  0
  7  8  1  0
  8  9  2  0
  9 12  1  0
 12 13  1  0
 13 14  1  0
 14 15  1  0
 14 16  1  0
  9 10  1  0
 10  2  1  0
 10  6  2  0
  7 11  1  0
 14 17  1  0
M  CHG 1  14   1
M  END
> <input_smiles>
CN(C)CCc1c[nH]c2cccc(C)c12

> <prot_variant_index>
1

> <minimizedAffinity>
0.00000

> <CNNscore>
0.6746396422

> <CNNaffinity>
3.4617154598

> <CNN_VS>
2.3354105949

> <CNNaffinity_variance>
1.3121646643

$$$$
DMT__p1


 17 18  0  0  0  0  0  0  0  0999 V2000
   -4.7839    4.0077   -0.1906 C   0  0  0  0  0  0  0  0  0  0  0  0
   -4.2818    5.3221   -0.7239 C   0  0  0  0  0  0  0  0  0  0  0  0
   -4.1411    6.3845    0.1976 C   0  0  0  0  0  0  0  0  0  0  0  0
   -3.6309    7.6219   -0.1780 C   0  0  0  0  0  0  0  0  0  0  0  0
   -3.2283    7.8522   -1.4884 C   0  0  0  0  0  0  0  0  0  0  0  0
   -3.3804    6.8103   -2.4087 C   0  0  0  0  0  0  0  0  0  0  0  0
   -3.0299    6.7836   -3.7368 N   0  0  0  0  0  0  0  0  0  0  0  0
   -3.3887    5.5890   -4.2912 C   0  0  0  0  0  0  0  0  0  0  0  0
   -3.9638    4.8031   -3.3088 C   0  0  0  0  0  0  0  0  0  0  0  0
   -3.9177    5.5601   -2.0804 C   0  0  0  0  0  0  0  0  0  0  0  0
   -2.5701    7.5445   -4.2212 H   0  0  0  0  0  0  0  0  0  0  0  0
   -4.5347    3.4380   -3.5558 C   0  0  0  0  0  0  0  0  0  0  0  0
   -4.5697    3.0918   -5.0531 C   0  0  0  0  0  0  0  0  0  0  0  0
   -5.9943    3.1027   -5.5934 N   0  0  0  0  0  0  0  0  0  0  0  0
   -6.2961    4.3474   -6.3772 C   0  0  0  0  0  0  0  0  0  0  0  0
   -6.3340    1.8647   -6.3689 C   0  0  0  0  0  0  0  0  0  0  0  0
   -6.6239    3.1347   -4.7755 H   0  0  0  0  0  0  0  0  0  0  0  0
  1  2  1  0
  2  3  2  0
  3  4  1  0
  4  5  2  0
  5  6  1  0
  6  7  1  0
  7  8  1  0
  8  9  2  0
  9 12  1  0
 12 13  1  0
 13 14  1  0
 14 15  1  0
 14 16  1  0
  9 10  1  0
 10  2  1  0
 10  6  2  0
  7 11  1  0
 14 17  1  0
M  CHG 1  14   1
M  END
> <input_smiles>
CN(C)CCc1c[nH]c2cccc(C)c12

> <prot_variant_index>
1

> <minimizedAffinity>
0.00000

> <CNNscore>
0.6281656027

> <CNNaffinity>
3.4384562969

> <CNN_VS>
2.1599199772

> <CNNaffinity_variance>
0.7250962853

$$$$
DMT__p1


 17 18  0  0  0  0  0  0  0  0999 V2000
   -2.5727   -0.2446   -2.6055 C   0  0  0  0  0  0  0  0  0  0  0  0
   -2.6054   -0.3964   -1.1088 C   0  0  0  0  0  0  0  0  0  0  0  0
   -3.8740   -0.4065   -0.4857 C   0  0  0  0  0  0  0  0  0  0  0  0
   -4.0202   -0.5994    0.8832 C   0  0  0  0  0  0  0  0  0  0  0  0
   -2.9072   -0.8012    1.6913 C   0  0  0  0  0  0  0  0  0  0  0  0
   -1.6481   -0.7758    1.0833 C   0  0  0  0  0  0  0  0  0  0  0  0
   -0.4166   -0.9796    1.6570 N   0  0  0  0  0  0  0  0  0  0  0  0
    0.5661   -0.8249    0.7222 C   0  0  0  0  0  0  0  0  0  0  0  0
   -0.0257   -0.5383   -0.4949 C   0  0  0  0  0  0  0  0  0  0  0  0
   -1.4540   -0.5542   -0.2851 C   0  0  0  0  0  0  0  0  0  0  0  0
   -0.2724   -1.2129    2.6316 H   0  0  0  0  0  0  0  0  0  0  0  0
    0.7410   -0.2468   -1.7508 C   0  0  0  0  0  0  0  0  0  0  0  0
    2.2592   -0.2419   -1.5097 C   0  0  0  0  0  0  0  0  0  0  0  0
    2.9484   -1.3614   -2.2799 N   0  0  0  0  0  0  0  0  0  0  0  0
    4.2873   -0.9430   -2.8156 C   0  0  0  0  0  0  0  0  0  0  0  0
    3.0399   -2.6378   -1.4977 C   0  0  0  0  0  0  0  0  0  0  0  0
    2.3680   -1.5527   -3.1123 H   0  0  0  0  0  0  0  0  0  0  0  0
  1  2  1  0
  2  3  2  0
  3  4  1  0
  4  5  2  0
  5  6  1  0
  6  7  1  0
  7  8  1  0
  8  9  2  0
  9 12  1  0
 12 13  1  0
 13 14  1  0
 14 15  1  0
 14 16  1  0
  9 10  1  0
 10  2  1  0
 10  6  2  0
  7 11  1  0
 14 17  1  0
M  CHG 1  14   1
M  END
> <input_smiles>
CN(C)CCc1c[nH]c2cccc(C)c12

> <prot_variant_index>
1

> <minimizedAffinity>
0.00000

> <CNNscore>
0.6245940328

> <CNNaffinity>
3.3623867035

> <CNN_VS>
2.1001267433

> <CNNaffinity_variance>
1.0015817881

$$$$
DMT__p1


 17 18  0  0  0  0  0  0  0  0999 V2000
   -0.5948    4.6753   -1.6640 C   0  0  0  0  0  0  0  0  0  0  0  0
   -0.4796    5.7886   -0.6583 C   0  0  0  0  0  0  0  0  0  0  0  0
    0.6403    6.6444   -0.7637 C   0  0  0  0  0  0  0  0  0  0  0  0
    0.8127    7.7379    0.0771 C   0  0  0  0  0  0  0  0  0  0  0  0
   -0.1301    8.0331    1.0550 C   0  0  0  0  0  0  0  0  0  0  0  0
   -1.2321    7.1805    1.1753 C   0  0  0  0  0  0  0  0  0  0  0  0
   -2.3012    7.2797    2.0322 N   0  0  0  0  0  0  0  0  0  0  0  0
   -3.1403    6.2173    1.8579 C   0  0  0  0  0  0  0  0  0  0  0  0
   -2.6312    5.4148    0.8528 C   0  0  0  0  0  0  0  0  0  0  0  0
   -1.4287    6.0521    0.3707 C   0  0  0  0  0  0  0  0  0  0  0  0
   -2.4370    8.0371    2.6903 H   0  0  0  0  0  0  0  0  0  0  0  0
   -3.2529    4.1205    0.4187 C   0  0  0  0  0  0  0  0  0  0  0  0
   -4.7883    4.1931    0.4143 C   0  0  0  0  0  0  0  0  0  0  0  0
   -5.4106    2.8061    0.3117 N   0  0  0  0  0  0  0  0  0  0  0  0
   -6.1322    2.4119    1.5681 C   0  0  0  0  0  0  0  0  0  0  0  0
   -6.2801    2.6445   -0.8995 C   0  0  0  0  0  0  0  0  0  0  0  0
   -4.6311    2.1348    0.2215 H   0  0  0  0  0  0  0  0  0  0  0  0
  1  2  1  0
  2  3  2  0
  3  4  1  0
  4  5  2  0
  5  6  1  0
  6  7  1  0
  7  8  1  0
  8  9  2  0
  9 12  1  0
 12 13  1  0
 13 14  1  0
 14 15  1  0
 14 16  1  0
  9 10  1  0
 10  2  1  0
 10  6  2  0
  7 11  1  0
 14 17  1  0
M  CHG 1  14   1
M  END
> <input_smiles>
CN(C)CCc1c[nH]c2cccc(C)c12

> <prot_variant_index>
1

> <minimizedAffinity>
0.00000

> <CNNscore>
0.6114466786

> <CNNaffinity>
3.5431346893

> <CNN_VS>
2.1664378643

> <CNNaffinity_variance>
0.3621520102

$$$$
DMT__p1


 17 18  0  0  0  0  0  0  0  0999 V2000
   -0.8322    3.7905   -0.7270 C   0  0  0  0  0  0  0  0  0  0  0  0
   -1.1838    5.1585   -1.2458 C   0  0  0  0  0  0  0  0  0  0  0  0
   -0.4316    5.6516   -2.3361 C   0  0  0  0  0  0  0  0  0  0  0  0
   -0.7115    6.8773   -2.9291 C   0  0  0  0  0  0  0  0  0  0  0  0
   -1.7617    7.6624   -2.4674 C   0  0  0  0  0  0  0  0  0  0  0  0
   -2.4993    7.1876   -1.3783 C   0  0  0  0  0  0  0  0  0  0  0  0
   -3.5905    7.7588   -0.7697 N   0  0  0  0  0  0  0  0  0  0  0  0
   -3.9890    6.9943    0.2887 C   0  0  0  0  0  0  0  0  0  0  0  0
   -3.1637    5.8870    0.3671 C   0  0  0  0  0  0  0  0  0  0  0  0
   -2.2322    5.9749   -0.7324 C   0  0  0  0  0  0  0  0  0  0  0  0
   -4.0279    8.6199   -1.0733 H   0  0  0  0  0  0  0  0  0  0  0  0
   -3.2602    4.8450    1.4418 C   0  0  0  0  0  0  0  0  0  0  0  0
   -4.1775    3.6810    1.0334 C   0  0  0  0  0  0  0  0  0  0  0  0
   -5.6048    3.9008    1.5190 N   0  0  0  0  0  0  0  0  0  0  0  0
   -6.5552    4.1720    0.3885 C   0  0  0  0  0  0  0  0  0  0  0  0
   -6.0979    2.7937    2.4025 C   0  0  0  0  0  0  0  0  0  0  0  0
   -5.5984    4.7648    2.0846 H   0  0  0  0  0  0  0  0  0  0  0  0
  1  2  1  0
  2  3  2  0
  3  4  1  0
  4  5  2  0
  5  6  1  0
  6  7  1  0
  7  8  1  0
  8  9  2  0
  9 12  1  0
 12 13  1  0
 13 14  1  0
 14 15  1  0
 14 16  1  0
  9 10  1  0
 10  2  1  0
 10  6  2  0
  7 11  1  0
 14 17  1  0
M  CHG 1  14   1
M  END
> <input_smiles>
CN(C)CCc1c[nH]c2cccc(C)c12

> <prot_variant_index>
1

> <minimizedAffinity>
0.00000

> <CNNscore>
0.6102862358

> <CNNaffinity>
3.5008137226

> <CNN_VS>
2.1364984512

> <CNNaffinity_variance>
1.2559466362

$$$$
DMT__p1


 17 18  0  0  0  0  0  0  0  0999 V2000
    4.8700   -6.1188   -4.0056 C   0  0  0  0  0  0  0  0  0  0  0  0
    4.8494   -6.2721   -2.5089 C   0  0  0  0  0  0  0  0  0  0  0  0
    5.6066   -7.3291   -1.9549 C   0  0  0  0  0  0  0  0  0  0  0  0
    5.7035   -7.5244   -0.5819 C   0  0  0  0  0  0  0  0  0  0  0  0
    5.0572   -6.6671    0.3012 C   0  0  0  0  0  0  0  0  0  0  0  0
    4.2930   -5.6290   -0.2412 C   0  0  0  0  0  0  0  0  0  0  0  0
    3.5966   -4.6448    0.4174 N   0  0  0  0  0  0  0  0  0  0  0  0
    2.9461   -3.8505   -0.4821 C   0  0  0  0  0  0  0  0  0  0  0  0
    3.2360   -4.3012   -1.7574 C   0  0  0  0  0  0  0  0  0  0  0  0
    4.1435   -5.4152   -1.6164 C   0  0  0  0  0  0  0  0  0  0  0  0
    3.5790   -4.5337    1.4236 H   0  0  0  0  0  0  0  0  0  0  0  0
    2.6539   -3.7099   -3.0071 C   0  0  0  0  0  0  0  0  0  0  0  0
    3.5490   -2.6052   -3.5915 C   0  0  0  0  0  0  0  0  0  0  0  0
    3.1560   -1.2320   -3.0612 N   0  0  0  0  0  0  0  0  0  0  0  0
    3.7729   -0.1172   -3.8557 C   0  0  0  0  0  0  0  0  0  0  0  0
    1.6720   -1.0606   -2.9276 C   0  0  0  0  0  0  0  0  0  0  0  0
    3.5606   -1.1502   -2.1147 H   0  0  0  0  0  0  0  0  0  0  0  0
  1  2  1  0
  2  3  2  0
  3  4  1  0
  4  5  2  0
  5  6  1  0
  6  7  1  0
  7  8  1  0
  8  9  2  0
  9 12  1  0
 12 13  1  0
 13 14  1  0
 14 15  1  0
 14 16  1  0
  9 10  1  0
 10  2  1  0
 10  6  2  0
  7 11  1  0
 14 17  1  0
M  CHG 1  14   1
M  END
> <input_smiles>
CN(C)CCc1c[nH]c2cccc(C)c12

> <prot_variant_index>
1

> <minimizedAffinity>
0.00000

> <CNNscore>
0.6032869220

> <CNNaffinity>
3.4692039490

> <CNN_VS>
2.0929253101

> <CNNaffinity_variance>
1.1018410921

$$$$
DMT__p1


 17 18  0  0  0  0  0  0  0  0999 V2000
   -0.4811    5.3169   -2.6058 C   0  0  0  0  0  0  0  0  0  0  0  0
   -1.1898    6.5949   -2.2471 C   0  0  0  0  0  0  0  0  0  0  0  0
   -0.5586    7.8084   -2.6030 C   0  0  0  0  0  0  0  0  0  0  0  0
   -1.1533    9.0432   -2.3709 C   0  0  0  0  0  0  0  0  0  0  0  0
   -2.4101    9.1228   -1.7821 C   0  0  0  0  0  0  0  0  0  0  0  0
   -3.0327    7.9264   -1.4125 C   0  0  0  0  0  0  0  0  0  0  0  0
   -4.2737    7.7453   -0.8517 N   0  0  0  0  0  0  0  0  0  0  0  0
   -4.4861    6.4197   -0.6045 C   0  0  0  0  0  0  0  0  0  0  0  0
   -3.3782    5.7096   -1.0308 C   0  0  0  0  0  0  0  0  0  0  0  0
   -2.4567    6.6644   -1.5995 C   0  0  0  0  0  0  0  0  0  0  0  0
   -4.9273    8.4938   -0.6578 H   0  0  0  0  0  0  0  0  0  0  0  0
   -3.2219    4.2263   -0.8711 C   0  0  0  0  0  0  0  0  0  0  0  0
   -4.2662    3.6384    0.0917 C   0  0  0  0  0  0  0  0  0  0  0  0
   -5.1135    2.5716   -0.5905 N   0  0  0  0  0  0  0  0  0  0  0  0
   -5.6410    1.5561    0.3818 C   0  0  0  0  0  0  0  0  0  0  0  0
   -6.2093    3.1490   -1.4362 C   0  0  0  0  0  0  0  0  0  0  0  0
   -4.4844    2.0474   -1.2196 H   0  0  0  0  0  0  0  0  0  0  0  0
  1  2  1  0
  2  3  2  0
  3  4  1  0
  4  5  2  0
  5  6  1  0
  6  7  1  0
  7  8  1  0
  8  9  2  0
  9 12  1  0
 12 13  1  0
 13 14  1  0
 14 15  1  0
 14 16  1  0
  9 10  1  0
 10  2  1  0
 10  6  2  0
  7 11  1  0
 14 17  1  0
M  CHG 1  14   1
M  END
> <input_smiles>
CN(C)CCc1c[nH]c2cccc(C)c12

> <prot_variant_index>
1

> <minimizedAffinity>
0.00000

> <CNNscore>
0.5949493051

> <CNNaffinity>
3.5093739033

> <CNN_VS>
2.0878994465

> <CNNaffinity_variance>
1.4355416298

$$$$
DMT__p1


 17 18  0  0  0  0  0  0  0  0999 V2000
   -2.4304    3.8313    3.9718 C   0  0  0  0  0  0  0  0  0  0  0  0
   -2.0036    5.2643    3.8038 C   0  0  0  0  0  0  0  0  0  0  0  0
   -2.1790    6.1271    4.9096 C   0  0  0  0  0  0  0  0  0  0  0  0
   -1.7652    7.4539    4.8809 C   0  0  0  0  0  0  0  0  0  0  0  0
   -1.1480    7.9774    3.7507 C   0  0  0  0  0  0  0  0  0  0  0  0
   -0.9865    7.1335    2.6474 C   0  0  0  0  0  0  0  0  0  0  0  0
   -0.3843    7.4055    1.4429 N   0  0  0  0  0  0  0  0  0  0  0  0
   -0.4757    6.3210    0.6190 C   0  0  0  0  0  0  0  0  0  0  0  0
   -1.1272    5.3067    1.2974 C   0  0  0  0  0  0  0  0  0  0  0  0
   -1.4159    5.8014    2.6226 C   0  0  0  0  0  0  0  0  0  0  0  0
    0.0615    8.2851    1.2133 H   0  0  0  0  0  0  0  0  0  0  0  0
   -1.4631    3.9758    0.6924 C   0  0  0  0  0  0  0  0  0  0  0  0
   -2.9270    3.9082    0.2284 C   0  0  0  0  0  0  0  0  0  0  0  0
   -3.0902    4.4643   -1.1807 N   0  0  0  0  0  0  0  0  0  0  0  0
   -2.0305    3.9603   -2.1176 C   0  0  0  0  0  0  0  0  0  0  0  0
   -4.4668    4.2513   -1.7366 C   0  0  0  0  0  0  0  0  0  0  0  0
   -2.9388    5.4839   -1.1190 H   0  0  0  0  0  0  0  0  0  0  0  0
  1  2  1  0
  2  3  2  0
  3  4  1  0
  4  5  2  0
  5  6  1  0
  6  7  1  0
  7  8  1  0
  8  9  2  0
  9 12  1  0
 12 13  1  0
 13 14  1  0
 14 15  1  0
 14 16  1  0
  9 10  1  0
 10  2  1  0
 10  6  2  0
  7 11  1  0
 14 17  1  0
M  CHG 1  14   1
M  END
> <input_smiles>
CN(C)CCc1c[nH]c2cccc(C)c12

> <prot_variant_index>
1

> <minimizedAffinity>
0.00000

> <CNNscore>
0.5817733407

> <CNNaffinity>
3.2835819721

> <CNN_VS>
1.9103004932

> <CNNaffinity_variance>
0.9949020743

$$$$
DMT__p1


 17 18  0  0  0  0  0  0  0  0999 V2000
   -2.9691   -1.1903   -1.1668 C   0  0  0  0  0  0  0  0  0  0  0  0
   -3.0279   -1.3709    0.3259 C   0  0  0  0  0  0  0  0  0  0  0  0
   -4.0711   -0.7148    1.0179 C   0  0  0  0  0  0  0  0  0  0  0  0
   -4.2516   -0.8616    2.3884 C   0  0  0  0  0  0  0  0  0  0  0  0
   -3.4050   -1.6782    3.1293 C   0  0  0  0  0  0  0  0  0  0  0  0
   -2.3608   -2.3171    2.4532 C   0  0  0  0  0  0  0  0  0  0  0  0
   -1.4244   -3.1890    2.9535 N   0  0  0  0  0  0  0  0  0  0  0  0
   -0.5514   -3.5529    1.9692 C   0  0  0  0  0  0  0  0  0  0  0  0
   -0.9304   -2.9312    0.7931 C   0  0  0  0  0  0  0  0  0  0  0  0
   -2.1245   -2.1726    1.0811 C   0  0  0  0  0  0  0  0  0  0  0  0
   -1.3983   -3.5096    3.9135 H   0  0  0  0  0  0  0  0  0  0  0  0
   -0.1737   -3.0471   -0.4970 C   0  0  0  0  0  0  0  0  0  0  0  0
    1.3339   -2.8191   -0.3017 C   0  0  0  0  0  0  0  0  0  0  0  0
    2.1432   -3.4608   -1.4219 N   0  0  0  0  0  0  0  0  0  0  0  0
    3.6198   -3.4212   -1.1518 C   0  0  0  0  0  0  0  0  0  0  0  0
    1.6792   -4.8470   -1.7571 C   0  0  0  0  0  0  0  0  0  0  0  0
    2.0030   -2.8786   -2.2632 H   0  0  0  0  0  0  0  0  0  0  0  0
  1  2  1  0
  2  3  2  0
  3  4  1  0
  4  5  2  0
  5  6  1  0
  6  7  1  0
  7  8  1  0
  8  9  2  0
  9 12  1  0
 12 13  1  0
 13 14  1  0
 14 15  1  0
 14 16  1  0
  9 10  1  0
 10  2  1  0
 10  6  2  0
  7 11  1  0
 14 17  1  0
M  CHG 1  14   1
M  END
> <input_smiles>
CN(C)CCc1c[nH]c2cccc(C)c12

> <prot_variant_index>
1

> <minimizedAffinity>
0.00000

> <CNNscore>
0.5697179437

> <CNNaffinity>
3.3143317699

> <CNN_VS>
1.8882342577

> <CNNaffinity_variance>
0.9870586991

$$$$
DMT__p1


 17 18  0  0  0  0  0  0  0  0999 V2000
   -4.3010    1.3700   -2.9464 C   0  0  0  0  0  0  0  0  0  0  0  0
   -4.6804    1.0836   -1.5188 C   0  0  0  0  0  0  0  0  0  0  0  0
   -6.0284    1.2963   -1.1509 C   0  0  0  0  0  0  0  0  0  0  0  0
   -6.4974    1.0080    0.1256 C   0  0  0  0  0  0  0  0  0  0  0  0
   -5.6445    0.4843    1.0903 C   0  0  0  0  0  0  0  0  0  0  0  0
   -4.3057    0.2870    0.7375 C   0  0  0  0  0  0  0  0  0  0  0  0
   -3.2899   -0.2420    1.4962 N   0  0  0  0  0  0  0  0  0  0  0  0
   -2.1205   -0.2203    0.7924 C   0  0  0  0  0  0  0  0  0  0  0  0
   -2.3711    0.3091   -0.4608 C   0  0  0  0  0  0  0  0  0  0  0  0
   -3.7852    0.5925   -0.5255 C   0  0  0  0  0  0  0  0  0  0  0  0
   -3.4054   -0.5959    2.4377 H   0  0  0  0  0  0  0  0  0  0  0  0
   -1.3128    0.5433   -1.4979 C   0  0  0  0  0  0  0  0  0  0  0  0
   -0.1667   -0.4754   -1.3901 C   0  0  0  0  0  0  0  0  0  0  0  0
    1.0181   -0.0739   -2.2597 N   0  0  0  0  0  0  0  0  0  0  0  0
    0.6634   -0.0259   -3.7180 C   0  0  0  0  0  0  0  0  0  0  0  0
    1.6699    1.1987   -1.8069 C   0  0  0  0  0  0  0  0  0  0  0  0
    1.7206   -0.8258   -2.1734 H   0  0  0  0  0  0  0  0  0  0  0  0
  1  2  1  0
  2  3  2  0
  3  4  1  0
  4  5  2  0
  5  6  1  0
  6  7  1  0
  7  8  1  0
  8  9  2  0
  9 12  1  0
 12 13  1  0
 13 14  1  0
 14 15  1  0
 14 16  1  0
  9 10  1  0
 10  2  1  0
 10  6  2  0
  7 11  1  0
 14 17  1  0
M  CHG 1  14   1
M  END
> <input_smiles>
CN(C)CCc1c[nH]c2cccc(C)c12

> <prot_variant_index>
1

> <minimizedAffinity>
0.00000

> <CNNscore>
0.5601256490

> <CNNaffinity>
3.3573043346

> <CNN_VS>
1.8805122375

> <CNNaffinity_variance>
0.4427485466

$$$$
DMT__p1


 17 18  0  0  0  0  0  0  0  0999 V2000
   -0.0545    6.2235   -1.1832 C   0  0  0  0  0  0  0  0  0  0  0  0
    0.0606    7.3368   -0.1775 C   0  0  0  0  0  0  0  0  0  0  0  0
    1.1805    8.1926   -0.2829 C   0  0  0  0  0  0  0  0  0  0  0  0
    1.3530    9.2861    0.5580 C   0  0  0  0  0  0  0  0  0  0  0  0
    0.4101    9.5814    1.5359 C   0  0  0  0  0  0  0  0  0  0  0  0
   -0.6918    8.7288    1.6561 C   0  0  0  0  0  0  0  0  0  0  0  0
   -1.7610    8.8280    2.5130 N   0  0  0  0  0  0  0  0  0  0  0  0
   -2.6001    7.7655    2.3387 C   0  0  0  0  0  0  0  0  0  0  0  0
   -2.0909    6.9630    1.3336 C   0  0  0  0  0  0  0  0  0  0  0  0
   -0.8885    7.6003    0.8516 C   0  0  0  0  0  0  0  0  0  0  0  0
   -1.8968    9.5853    3.1711 H   0  0  0  0  0  0  0  0  0  0  0  0
   -2.7126    5.6687    0.8995 C   0  0  0  0  0  0  0  0  0  0  0  0
   -3.6878    5.1176    1.9523 C   0  0  0  0  0  0  0  0  0  0  0  0
   -3.9161    3.6222    1.7703 N   0  0  0  0  0  0  0  0  0  0  0  0
   -2.6316    2.8447    1.7832 C   0  0  0  0  0  0  0  0  0  0  0  0
   -4.9120    3.0613    2.7414 C   0  0  0  0  0  0  0  0  0  0  0  0
   -4.3052    3.4925    0.8226 H   0  0  0  0  0  0  0  0  0  0  0  0
  1  2  1  0
  2  3  2  0
  3  4  1  0
  4  5  2  0
  5  6  1  0
  6  7  1  0
  7  8  1  0
  8  9  2  0
  9 12  1  0
 12 13  1  0
 13 14  1  0
 14 15  1  0
 14 16  1  0
  9 10  1  0
 10  2  1  0
 10  6  2  0
  7 11  1  0
 14 17  1  0
M  CHG 1  14   1
M  END
> <input_smiles>
CN(C)CCc1c[nH]c2cccc(C)c12

> <prot_variant_index>
1

> <minimizedAffinity>
0.00000

> <CNNscore>
0.5599402189

> <CNNaffinity>
3.7520484924

> <CNN_VS>
2.1009228230

> <CNNaffinity_variance>
0.3626969159

$$$$
DMT__p1


 17 18  0  0  0  0  0  0  0  0999 V2000
   -8.2089    4.2123   -2.4585 C   0  0  0  0  0  0  0  0  0  0  0  0
   -9.2274    4.2808   -1.3530 C   0  0  0  0  0  0  0  0  0  0  0  0
   -9.7016    5.5608   -0.9866 C   0  0  0  0  0  0  0  0  0  0  0  0
  -10.6849    5.7324   -0.0190 C   0  0  0  0  0  0  0  0  0  0  0  0
  -11.2470    4.6332    0.6199 C   0  0  0  0  0  0  0  0  0  0  0  0
  -10.7703    3.3649    0.2737 C   0  0  0  0  0  0  0  0  0  0  0  0
  -11.1851    2.1394    0.7356 N   0  0  0  0  0  0  0  0  0  0  0  0
  -10.4303    1.1490    0.1765 C   0  0  0  0  0  0  0  0  0  0  0  0
   -9.5175    1.7263   -0.6878 C   0  0  0  0  0  0  0  0  0  0  0  0
   -9.7609    3.1492   -0.6718 C   0  0  0  0  0  0  0  0  0  0  0  0
  -11.9435    2.0038    1.3926 H   0  0  0  0  0  0  0  0  0  0  0  0
   -8.4773    0.9548   -1.4448 C   0  0  0  0  0  0  0  0  0  0  0  0
   -8.9768    0.5267   -2.8341 C   0  0  0  0  0  0  0  0  0  0  0  0
   -9.5775   -0.8732   -2.8023 N   0  0  0  0  0  0  0  0  0  0  0  0
  -11.0655   -0.8586   -3.0035 C   0  0  0  0  0  0  0  0  0  0  0  0
   -8.9008   -1.8205   -3.7478 C   0  0  0  0  0  0  0  0  0  0  0  0
   -9.4340   -1.2383   -1.8471 H   0  0  0  0  0  0  0  0  0  0  0  0
  1  2  1  0
  2  3  2  0
  3  4  1  0
  4  5  2  0
  5  6  1  0
  6  7  1  0
  7  8  1  0
  8  9  2  0
  9 12  1  0
 12 13  1  0
 13 14  1  0
 14 15  1  0
 14 16  1  0
  9 10  1  0
 10  2  1  0
 10  6  2  0
  7 11  1  0
 14 17  1  0
M  CHG 1  14   1
M  END
> <input_smiles>
CN(C)CCc1c[nH]c2cccc(C)c12

> <prot_variant_index>
1

> <minimizedAffinity>
0.00000

> <CNNscore>
0.5571761131

> <CNNaffinity>
3.4181087017

> <CNN_VS>
1.9044885635

> <CNNaffinity_variance>
1.0817044973

$$$$
DMT__p1


 17 18  0  0  0  0  0  0  0  0999 V2000
   -4.6570    3.8795    1.4672 C   0  0  0  0  0  0  0  0  0  0  0  0
   -3.8102    5.1042    1.2500 C   0  0  0  0  0  0  0  0  0  0  0  0
   -3.2269    5.7000    2.3913 C   0  0  0  0  0  0  0  0  0  0  0  0
   -2.3808    6.7989    2.2968 C   0  0  0  0  0  0  0  0  0  0  0  0
   -2.0700    7.3470    1.0577 C   0  0  0  0  0  0  0  0  0  0  0  0
   -2.6570    6.7723   -0.0740 C   0  0  0  0  0  0  0  0  0  0  0  0
   -2.4818    7.1105   -1.3940 N   0  0  0  0  0  0  0  0  0  0  0  0
   -3.2733    6.3295   -2.1858 C   0  0  0  0  0  0  0  0  0  0  0  0
   -3.9650    5.4438   -1.3792 C   0  0  0  0  0  0  0  0  0  0  0  0
   -3.5379    5.6858   -0.0215 C   0  0  0  0  0  0  0  0  0  0  0  0
   -1.8522    7.8335   -1.7193 H   0  0  0  0  0  0  0  0  0  0  0  0
   -4.9781    4.4623   -1.8896 C   0  0  0  0  0  0  0  0  0  0  0  0
   -5.3611    4.7394   -3.3523 C   0  0  0  0  0  0  0  0  0  0  0  0
   -6.8660    4.9185   -3.5090 N   0  0  0  0  0  0  0  0  0  0  0  0
   -7.3631    4.4219   -4.8360 C   0  0  0  0  0  0  0  0  0  0  0  0
   -7.6455    4.3299   -2.3709 C   0  0  0  0  0  0  0  0  0  0  0  0
   -7.0473    5.9351   -3.5116 H   0  0  0  0  0  0  0  0  0  0  0  0
  1  2  1  0
  2  3  2  0
  3  4  1  0
  4  5  2  0
  5  6  1  0
  6  7  1  0
  7  8  1  0
  8  9  2  0
  9 12  1  0
 12 13  1  0
 13 14  1  0
 14 15  1  0
 14 16  1  0
  9 10  1  0
 10  2  1  0
 10  6  2  0
  7 11  1  0
 14 17  1  0
M  CHG 1  14   1
M  END
> <input_smiles>
CN(C)CCc1c[nH]c2cccc(C)c12

> <prot_variant_index>
1

> <minimizedAffinity>
0.00000

> <CNNscore>
0.5472264886

> <CNNaffinity>
3.4004151821

> <CNN_VS>
1.8607972860

> <CNNaffinity_variance>
0.6333399415

$$$$
DMT__p1


 17 18  0  0  0  0  0  0  0  0999 V2000
   -0.4811    5.3169   -2.6058 C   0  0  0  0  0  0  0  0  0  0  0  0
   -0.3612    6.7438   -2.1434 C   0  0  0  0  0  0  0  0  0  0  0  0
    0.8194    7.4402   -2.4881 C   0  0  0  0  0  0  0  0  0  0  0  0
    1.0067    8.7784   -2.1616 C   0  0  0  0  0  0  0  0  0  0  0  0
    0.0195    9.4855   -1.4850 C   0  0  0  0  0  0  0  0  0  0  0  0
   -1.1441    8.7977   -1.1265 C   0  0  0  0  0  0  0  0  0  0  0  0
   -2.2619    9.2806   -0.4902 N   0  0  0  0  0  0  0  0  0  0  0  0
   -3.1575    8.2706   -0.2875 C   0  0  0  0  0  0  0  0  0  0  0  0
   -2.6348    7.1057   -0.8197 C   0  0  0  0  0  0  0  0  0  0  0  0
   -1.3604    7.4437   -1.4079 C   0  0  0  0  0  0  0  0  0  0  0  0
   -2.3916   10.2474   -0.2192 H   0  0  0  0  0  0  0  0  0  0  0  0
   -3.3117    5.7695   -0.7366 C   0  0  0  0  0  0  0  0  0  0  0  0
   -4.2083    5.5023   -1.9562 C   0  0  0  0  0  0  0  0  0  0  0  0
   -5.6815    5.6892   -1.6153 N   0  0  0  0  0  0  0  0  0  0  0  0
   -5.9582    5.4818   -0.1541 C   0  0  0  0  0  0  0  0  0  0  0  0
   -6.2321    6.9965   -2.1024 C   0  0  0  0  0  0  0  0  0  0  0  0
   -6.1983    4.9387   -2.1011 H   0  0  0  0  0  0  0  0  0  0  0  0
  1  2  1  0
  2  3  2  0
  3  4  1  0
  4  5  2  0
  5  6  1  0
  6  7  1  0
  7  8  1  0
  8  9  2  0
  9 12  1  0
 12 13  1  0
 13 14  1  0
 14 15  1  0
 14 16  1  0
  9 10  1  0
 10  2  1  0
 10  6  2  0
  7 11  1  0
 14 17  1  0
M  CHG 1  14   1
M  END
> <input_smiles>
CN(C)CCc1c[nH]c2cccc(C)c12

> <prot_variant_index>
1

> <minimizedAffinity>
0.00000

> <CNNscore>
0.5423668027

> <CNNaffinity>
3.3716049194

> <CNN_VS>
1.8286465406

> <CNNaffinity_variance>
0.9612843990

$$$$
DMT__p1


 17 18  0  0  0  0  0  0  0  0999 V2000
   -5.8292    1.1755    2.4672 C   0  0  0  0  0  0  0  0  0  0  0  0
   -5.4358    1.1057    3.9178 C   0  0  0  0  0  0  0  0  0  0  0  0
   -6.3266    1.6697    4.8591 C   0  0  0  0  0  0  0  0  0  0  0  0
   -6.0881    1.6078    6.2273 C   0  0  0  0  0  0  0  0  0  0  0  0
   -4.9545    0.9709    6.7189 C   0  0  0  0  0  0  0  0  0  0  0  0
   -4.0608    0.4252    5.7919 C   0  0  0  0  0  0  0  0  0  0  0  0
   -2.9019   -0.2732    6.0294 N   0  0  0  0  0  0  0  0  0  0  0  0
   -2.2987   -0.5939    4.8476 C   0  0  0  0  0  0  0  0  0  0  0  0
   -3.0832   -0.1215    3.8108 C   0  0  0  0  0  0  0  0  0  0  0  0
   -4.2465    0.4922    4.4061 C   0  0  0  0  0  0  0  0  0  0  0  0
   -2.5577   -0.5116    6.9512 H   0  0  0  0  0  0  0  0  0  0  0  0
   -2.7137   -0.2365    2.3615 C   0  0  0  0  0  0  0  0  0  0  0  0
   -3.2721   -1.5199    1.7259 C   0  0  0  0  0  0  0  0  0  0  0  0
   -2.1845   -2.5724    1.5502 N   0  0  0  0  0  0  0  0  0  0  0  0
   -0.8156   -1.9643    1.4457 C   0  0  0  0  0  0  0  0  0  0  0  0
   -2.2350   -3.6444    2.5979 C   0  0  0  0  0  0  0  0  0  0  0  0
   -2.3527   -3.0266    0.6382 H   0  0  0  0  0  0  0  0  0  0  0  0
  1  2  1  0
  2  3  2  0
  3  4  1  0
  4  5  2  0
  5  6  1  0
  6  7  1  0
  7  8  1  0
  8  9  2  0
  9 12  1  0
 12 13  1  0
 13 14  1  0
 14 15  1  0
 14 16  1  0
  9 10  1  0
 10  2  1  0
 10  6  2  0
  7 11  1  0
 14 17  1  0
M  CHG 1  14   1
M  END
> <input_smiles>
CN(C)CCc1c[nH]c2cccc(C)c12

> <prot_variant_index>
1

> <minimizedAffinity>
0.00000

> <CNNscore>
0.5415325761

> <CNNaffinity>
3.3994448185

> <CNN_VS>
1.8409100771

> <CNNaffinity_variance>
1.2267239094

$$$$
DMT__p1


 17 18  0  0  0  0  0  0  0  0999 V2000
   -1.4047    3.2037    4.1875 C   0  0  0  0  0  0  0  0  0  0  0  0
   -1.4257    4.6964    3.9993 C   0  0  0  0  0  0  0  0  0  0  0  0
   -1.5945    5.4933    5.1543 C   0  0  0  0  0  0  0  0  0  0  0  0
   -1.5701    6.8822    5.1004 C   0  0  0  0  0  0  0  0  0  0  0  0
   -1.3657    7.5391    3.8924 C   0  0  0  0  0  0  0  0  0  0  0  0
   -1.2145    6.7565    2.7434 C   0  0  0  0  0  0  0  0  0  0  0  0
   -0.9717    7.1663    1.4548 N   0  0  0  0  0  0  0  0  0  0  0  0
   -0.9353    6.0870    0.6199 C   0  0  0  0  0  0  0  0  0  0  0  0
   -1.1329    4.9426    1.3714 C   0  0  0  0  0  0  0  0  0  0  0  0
   -1.2633    5.3576    2.7480 C   0  0  0  0  0  0  0  0  0  0  0  0
   -0.8380    8.1310    1.1782 H   0  0  0  0  0  0  0  0  0  0  0  0
   -1.2144    3.5623    0.7895 C   0  0  0  0  0  0  0  0  0  0  0  0
    0.1565    2.8674    0.7636 C   0  0  0  0  0  0  0  0  0  0  0  0
    0.0669    1.4405    1.2902 N   0  0  0  0  0  0  0  0  0  0  0  0
   -1.3255    0.8861    1.1978 C   0  0  0  0  0  0  0  0  0  0  0  0
    1.0710    0.5217    0.6602 C   0  0  0  0  0  0  0  0  0  0  0  0
    0.2792    1.4808    2.3000 H   0  0  0  0  0  0  0  0  0  0  0  0
  1  2  1  0
  2  3  2  0
  3  4  1  0
  4  5  2  0
  5  6  1  0
  6  7  1  0
  7  8  1  0
  8  9  2  0
  9 12  1  0
 12 13  1  0
 13 14  1  0
 14 15  1  0
 14 16  1  0
  9 10  1  0
 10  2  1  0
 10  6  2  0
  7 11  1  0
 14 17  1  0
M  CHG 1  14   1
M  END
> <input_smiles>
CN(C)CCc1c[nH]c2cccc(C)c12

> <prot_variant_index>
1

> <minimizedAffinity>
0.00000

> <CNNscore>
0.5387688875

> <CNNaffinity>
3.3887166977

> <CNN_VS>
1.8257350922

> <CNNaffinity_variance>
1.2776765823

$$$$
DMT__p1


 17 18  0  0  0  0  0  0  0  0999 V2000
   -3.8920    4.2217    3.2485 C   0  0  0  0  0  0  0  0  0  0  0  0
   -3.4228    5.4365    2.4947 C   0  0  0  0  0  0  0  0  0  0  0  0
   -2.5510    6.3214    3.1690 C   0  0  0  0  0  0  0  0  0  0  0  0
   -2.0128    7.4415    2.5461 C   0  0  0  0  0  0  0  0  0  0  0  0
   -2.3120    7.7240    1.2182 C   0  0  0  0  0  0  0  0  0  0  0  0
   -3.1871    6.8614    0.5505 C   0  0  0  0  0  0  0  0  0  0  0  0
   -3.6045    6.9101   -0.7574 N   0  0  0  0  0  0  0  0  0  0  0  0
   -4.4955    5.9052   -1.0016 C   0  0  0  0  0  0  0  0  0  0  0  0
   -4.6519    5.1649    0.1564 C   0  0  0  0  0  0  0  0  0  0  0  0
   -3.7754    5.7409    1.1485 C   0  0  0  0  0  0  0  0  0  0  0  0
   -3.2876    7.5947   -1.4327 H   0  0  0  0  0  0  0  0  0  0  0  0
   -5.5983    4.0087    0.2898 C   0  0  0  0  0  0  0  0  0  0  0  0
   -4.9229    2.6705   -0.0509 C   0  0  0  0  0  0  0  0  0  0  0  0
   -5.3327    2.1764   -1.4327 N   0  0  0  0  0  0  0  0  0  0  0  0
   -6.6695    2.7135   -1.8558 C   0  0  0  0  0  0  0  0  0  0  0  0
   -4.2828    2.4215   -2.4753 C   0  0  0  0  0  0  0  0  0  0  0  0
   -5.4591    1.1541   -1.3591 H   0  0  0  0  0  0  0  0  0  0  0  0
  1  2  1  0
  2  3  2  0
  3  4  1  0
  4  5  2  0
  5  6  1  0
  6  7  1  0
  7  8  1  0
  8  9  2  0
  9 12  1  0
 12 13  1  0
 13 14  1  0
 14 15  1  0
 14 16  1  0
  9 10  1  0
 10  2  1  0
 10  6  2  0
  7 11  1  0
 14 17  1  0
M  CHG 1  14   1
M  END
> <input_smiles>
CN(C)CCc1c[nH]c2cccc(C)c12

> <prot_variant_index>
1

> <minimizedAffinity>
0.00000

> <CNNscore>
0.5377992392

> <CNNaffinity>
3.5296323299

> <CNN_VS>
1.8982335329

> <CNNaffinity_variance>
1.2536088228

$$$$
DMT__p1


 17 18  0  0  0  0  0  0  0  0999 V2000
   -6.0939    0.5533    3.3964 C   0  0  0  0  0  0  0  0  0  0  0  0
   -5.5393    0.6801    4.7894 C   0  0  0  0  0  0  0  0  0  0  0  0
   -6.4269    1.1031    5.8047 C   0  0  0  0  0  0  0  0  0  0  0  0
   -6.0330    1.1973    7.1346 C   0  0  0  0  0  0  0  0  0  0  0  0
   -4.7377    0.8637    7.5133 C   0  0  0  0  0  0  0  0  0  0  0  0
   -3.8499    0.4603    6.5109 C   0  0  0  0  0  0  0  0  0  0  0  0
   -2.5439    0.0535    6.6375 N   0  0  0  0  0  0  0  0  0  0  0  0
   -2.0161   -0.2140    5.4074 C   0  0  0  0  0  0  0  0  0  0  0  0
   -2.9955   -0.0043    4.4534 C   0  0  0  0  0  0  0  0  0  0  0  0
   -4.1959    0.3813    5.1568 C   0  0  0  0  0  0  0  0  0  0  0  0
   -2.0563   -0.0339    7.5205 H   0  0  0  0  0  0  0  0  0  0  0  0
   -2.7697   -0.1430    2.9769 C   0  0  0  0  0  0  0  0  0  0  0  0
   -2.5251    1.2165    2.3024 C   0  0  0  0  0  0  0  0  0  0  0  0
   -3.3751    1.3761    1.0480 N   0  0  0  0  0  0  0  0  0  0  0  0
   -2.7305    2.2775    0.0348 C   0  0  0  0  0  0  0  0  0  0  0  0
   -3.7770    0.0634    0.4443 C   0  0  0  0  0  0  0  0  0  0  0  0
   -4.2413    1.8604    1.3336 H   0  0  0  0  0  0  0  0  0  0  0  0
  1  2  1  0
  2  3  2  0
  3  4  1  0
  4  5  2  0
  5  6  1  0
  6  7  1  0
  7  8  1  0
  8  9  2  0
  9 12  1  0
 12 13  1  0
 13 14  1  0
 14 15  1  0
 14 16  1  0
  9 10  1  0
 10  2  1  0
 10  6  2  0
  7 11  1  0
 14 17  1  0
M  CHG 1  14   1
M  END
> <input_smiles>
CN(C)CCc1c[nH]c2cccc(C)c12

> <prot_variant_index>
1

> <minimizedAffinity>
0.00000

> <CNNscore>
0.5349923968

> <CNNaffinity>
3.1461622715

> <CNN_VS>
1.6831729412

> <CNNaffinity_variance>
0.7424521446

$$$$
DMT__p1


 17 18  0  0  0  0  0  0  0  0999 V2000
    0.1791    3.4154    1.0989 C   0  0  0  0  0  0  0  0  0  0  0  0
    1.3953    3.9986    1.7659 C   0  0  0  0  0  0  0  0  0  0  0  0
    1.9562    3.2725    2.8409 C   0  0  0  0  0  0  0  0  0  0  0  0
    3.1128    3.6915    3.4883 C   0  0  0  0  0  0  0  0  0  0  0  0
    3.7683    4.8493    3.0854 C   0  0  0  0  0  0  0  0  0  0  0  0
    3.2091    5.5811    2.0331 C   0  0  0  0  0  0  0  0  0  0  0  0
    3.6831    6.7264    1.4406 N   0  0  0  0  0  0  0  0  0  0  0  0
    2.8149    7.1471    0.4749 C   0  0  0  0  0  0  0  0  0  0  0  0
    1.7616    6.2526    0.4103 C   0  0  0  0  0  0  0  0  0  0  0  0
    2.0304    5.2122    1.3745 C   0  0  0  0  0  0  0  0  0  0  0  0
    4.5526    7.1808    1.6908 H   0  0  0  0  0  0  0  0  0  0  0  0
    0.5790    6.4156   -0.4980 C   0  0  0  0  0  0  0  0  0  0  0  0
    0.7912    5.7145   -1.8495 C   0  0  0  0  0  0  0  0  0  0  0  0
    1.1192    6.7156   -2.9502 N   0  0  0  0  0  0  0  0  0  0  0  0
    0.5828    8.0859   -2.6514 C   0  0  0  0  0  0  0  0  0  0  0  0
    2.5801    6.7548   -3.2872 C   0  0  0  0  0  0  0  0  0  0  0  0
    0.6173    6.4037   -3.7971 H   0  0  0  0  0  0  0  0  0  0  0  0
  1  2  1  0
  2  3  2  0
  3  4  1  0
  4  5  2  0
  5  6  1  0
  6  7  1  0
  7  8  1  0
  8  9  2  0
  9 12  1  0
 12 13  1  0
 13 14  1  0
 14 15  1  0
 14 16  1  0
  9 10  1  0
 10  2  1  0
 10  6  2  0
  7 11  1  0
 14 17  1  0
M  CHG 1  14   1
M  END
> <input_smiles>
CN(C)CCc1c[nH]c2cccc(C)c12

> <prot_variant_index>
1

> <minimizedAffinity>
0.00000

> <CNNscore>
0.5298805833

> <CNNaffinity>
3.3059027195

> <CNN_VS>
1.7517336607

> <CNNaffinity_variance>
0.9530300498

$$$$
LSD__p0


 29 33  0  0  0  0  0  0  0  0999 V2000
   -4.5274    0.9993   -0.7493 C   0  0  0  0  0  0  0  0  0  0  0  0
   -5.2330    2.2861   -0.7833 N   0  0  0  0  0  0  0  0  0  0  0  0
   -4.8096    3.2899    0.0814 C   0  0  0  0  0  0  0  0  0  0  0  0
   -5.5205    4.3975    0.3324 C   0  0  0  0  0  0  0  0  0  0  0  0
   -4.8606    5.7119    0.6059 C   0  0  0  0  0  0  0  0  0  0  0  0
   -5.3834    6.7219   -0.4399 C   0  0  0  0  0  0  0  0  0  0  0  0
   -6.0274    6.0851   -1.7320 C   0  0  0  0  0  0  0  0  0  0  0  0
   -6.9285    4.9110   -1.4965 N   0  0  0  0  0  0  0  0  0  0  0  0
   -6.7682    3.7062   -2.3407 C   0  0  0  0  0  0  0  0  0  0  0  0
   -5.5737    2.7142   -2.1805 C   0  0  0  0  0  0  0  0  0  0  0  0
   -6.9684    4.5569   -0.0603 C   0  0  0  0  0  0  0  0  0  0  0  0
   -5.0489    5.9906   -2.9041 C   0  0  0  0  0  0  0  0  0  0  0  0
   -5.4475    6.1535   -4.2400 C   0  0  0  0  0  0  0  0  0  0  0  0
   -4.5227    6.0482   -5.2835 C   0  0  0  0  0  0  0  0  0  0  0  0
   -3.1868    5.7773   -5.0026 C   0  0  0  0  0  0  0  0  0  0  0  0
   -2.0500    5.6533   -6.2876 Cl  0  0  0  0  0  0  0  0  0  0  0  0
   -2.7662    5.6107   -3.6871 C   0  0  0  0  0  0  0  0  0  0  0  0
   -3.6920    5.7157   -2.6460 C   0  0  0  0  0  0  0  0  0  0  0  0
   -7.9455    3.4203    0.3577 C   0  0  0  0  0  0  0  0  0  0  0  0
   -8.0831    3.2871    1.8505 C   0  0  0  0  0  0  0  0  0  0  0  0
   -8.7773    4.1402    2.6863 C   0  0  0  0  0  0  0  0  0  0  0  0
   -8.6680    3.6731    3.9666 N   0  0  0  0  0  0  0  0  0  0  0  0
   -7.9100    2.5260    3.9925 C   0  0  0  0  0  0  0  0  0  0  0  0
   -7.5399    1.7128    5.0705 C   0  0  0  0  0  0  0  0  0  0  0  0
   -6.7514    0.5916    4.7957 C   0  0  0  0  0  0  0  0  0  0  0  0
   -6.3506    0.2981    3.4946 C   0  0  0  0  0  0  0  0  0  0  0  0
   -6.7298    1.1221    2.4287 C   0  0  0  0  0  0  0  0  0  0  0  0
   -7.5254    2.2596    2.6782 C   0  0  0  0  0  0  0  0  0  0  0  0
   -9.0835    4.1035    4.7802 H   0  0  0  0  0  0  0  0  0  0  0  0
  1  2  1  0
  2  3  1  0
  3  4  2  0
  4  5  1  0
  5  6  1  0
  6  7  1  0
  7 12  1  0
 12 13  2  0
 13 14  1  0
 14 15  2  0
 15 16  1  0
 15 17  1  0
 17 18  2  0
  7  8  1  0
  8  9  1  0
  9 10  1  0
  8 11  1  0
 11 19  1  0
 19 20  1  0
 20 21  2  0
 21 22  1  0
 22 23  1  0
 23 24  2  0
 24 25  1  0
 25 26  2  0
 26 27  1  0
 27 28  2  0
 10  2  1  0
 28 20  1  0
 11  4  1  0
 28 23  1  0
 18 12  1  0
 22 29  1  0
M  END
> <input_smiles>
CN1CCN(C2CC3=CNC4=CC=CC=C34)C(CCC2=C1)c5ccc(Cl)cc5

> <prot_variant_index>
0

> <minimizedAffinity>
0.00000

> <CNNscore>
0.5484284759

> <CNNaffinity>
4.3542342186

> <CNN_VS>
2.3879859447

> <CNNaffinity_variance>
3.0705544949

$$$$
LSD__p0


 29 33  0  0  0  0  0  0  0  0999 V2000
   -2.1881    0.5535    1.8205 C   0  0  0  0  0  0  0  0  0  0  0  0
   -1.3608    0.9433    0.6723 N   0  0  0  0  0  0  0  0  0  0  0  0
   -0.4654    1.9951    0.8353 C   0  0  0  0  0  0  0  0  0  0  0  0
    0.1462    2.6099   -0.1860 C   0  0  0  0  0  0  0  0  0  0  0  0
    1.5342    3.1539   -0.0607 C   0  0  0  0  0  0  0  0  0  0  0  0
    2.3980    2.4811   -1.1507 C   0  0  0  0  0  0  0  0  0  0  0  0
    1.8125    1.1428   -1.7472 C   0  0  0  0  0  0  0  0  0  0  0  0
    0.3419    1.1499   -2.0354 N   0  0  0  0  0  0  0  0  0  0  0  0
   -0.4788    0.0006   -1.5932 C   0  0  0  0  0  0  0  0  0  0  0  0
   -0.8586   -0.2420   -0.0987 C   0  0  0  0  0  0  0  0  0  0  0  0
   -0.2696    2.4335   -1.6254 C   0  0  0  0  0  0  0  0  0  0  0  0
    2.3885   -0.1102   -1.0850 C   0  0  0  0  0  0  0  0  0  0  0  0
    2.6211   -1.3016   -1.7895 C   0  0  0  0  0  0  0  0  0  0  0  0
    3.1388   -2.4286   -1.1435 C   0  0  0  0  0  0  0  0  0  0  0  0
    3.4292   -2.3771    0.2166 C   0  0  0  0  0  0  0  0  0  0  0  0
    4.0708   -3.7632    1.0079 Cl  0  0  0  0  0  0  0  0  0  0  0  0
    3.2070   -1.2085    0.9378 C   0  0  0  0  0  0  0  0  0  0  0  0
    2.6891   -0.0838    0.2906 C   0  0  0  0  0  0  0  0  0  0  0  0
   -1.7765    2.6334   -1.9577 C   0  0  0  0  0  0  0  0  0  0  0  0
   -2.2996    3.9739   -1.5166 C   0  0  0  0  0  0  0  0  0  0  0  0
   -3.2662    4.1976   -0.5553 C   0  0  0  0  0  0  0  0  0  0  0  0
   -3.4572    5.5466   -0.4415 N   0  0  0  0  0  0  0  0  0  0  0  0
   -2.6347    6.2199   -1.3140 C   0  0  0  0  0  0  0  0  0  0  0  0
   -2.4902    7.5941   -1.5403 C   0  0  0  0  0  0  0  0  0  0  0  0
   -1.5621    7.9980   -2.5045 C   0  0  0  0  0  0  0  0  0  0  0  0
   -0.8104    7.0634   -3.2125 C   0  0  0  0  0  0  0  0  0  0  0  0
   -0.9677    5.6933   -2.9734 C   0  0  0  0  0  0  0  0  0  0  0  0
   -1.8971    5.2586   -2.0058 C   0  0  0  0  0  0  0  0  0  0  0  0
   -4.1063    5.9907    0.1919 H   0  0  0  0  0  0  0  0  0  0  0  0
  1  2  1  0
  2  3  1  0
  3  4  2  0
  4  5  1  0
  5  6  1  0
  6  7  1  0
  7 12  1  0
 12 13  2  0
 13 14  1  0
 14 15  2  0
 15 16  1  0
 15 17  1  0
 17 18  2  0
  7  8  1  0
  8  9  1  0
  9 10  1  0
  8 11  1  0
 11 19  1  0
 19 20  1  0
 20 21  2  0
 21 22  1  0
 22 23  1  0
 23 24  2  0
 24 25  1  0
 25 26  2  0
 26 27  1  0
 27 28  2  0
 10  2  1  0
 28 20  1  0
 11  4  1  0
 28 23  1  0
 18 12  1  0
 22 29  1  0
M  END
> <input_smiles>
CN1CCN(C2CC3=CNC4=CC=CC=C34)C(CCC2=C1)c5ccc(Cl)cc5

> <prot_variant_index>
0

> <minimizedAffinity>
0.00000

> <CNNscore>
0.5324216485

> <CNNaffinity>
4.4600243568

> <CNN_VS>
2.3746135235

> <CNNaffinity_variance>
3.1349475384

$$$$
LSD__p0


 29 33  0  0  0  0  0  0  0  0999 V2000
   -2.5727   -0.2446   -2.1986 C   0  0  0  0  0  0  0  0  0  0  0  0
   -1.6859    0.8031   -1.6781 N   0  0  0  0  0  0  0  0  0  0  0  0
   -1.3965    1.8866   -2.5008 C   0  0  0  0  0  0  0  0  0  0  0  0
   -0.4125    2.7612   -2.2522 C   0  0  0  0  0  0  0  0  0  0  0  0
   -0.5307    4.2060   -2.6219 C   0  0  0  0  0  0  0  0  0  0  0  0
   -0.3448    5.0336   -1.3306 C   0  0  0  0  0  0  0  0  0  0  0  0
   -0.5631    4.2425    0.0171 C   0  0  0  0  0  0  0  0  0  0  0  0
    0.0344    2.8691    0.0671 N   0  0  0  0  0  0  0  0  0  0  0  0
   -0.7876    1.7501    0.5792 C   0  0  0  0  0  0  0  0  0  0  0  0
   -1.9590    1.1189   -0.2368 C   0  0  0  0  0  0  0  0  0  0  0  0
    0.6662    2.5216   -1.2250 C   0  0  0  0  0  0  0  0  0  0  0  0
   -1.9714    4.4129    0.5897 C   0  0  0  0  0  0  0  0  0  0  0  0
   -3.1170    4.4721   -0.2190 C   0  0  0  0  0  0  0  0  0  0  0  0
   -4.3859    4.6399    0.3441 C   0  0  0  0  0  0  0  0  0  0  0  0
   -4.5236    4.7517    1.7245 C   0  0  0  0  0  0  0  0  0  0  0  0
   -6.0861    4.9529    2.4154 Cl  0  0  0  0  0  0  0  0  0  0  0  0
   -3.4039    4.6970    2.5481 C   0  0  0  0  0  0  0  0  0  0  0  0
   -2.1369    4.5299    1.9834 C   0  0  0  0  0  0  0  0  0  0  0  0
    1.4236    1.1643   -1.2959 C   0  0  0  0  0  0  0  0  0  0  0  0
    2.0440    0.9105   -2.6434 C   0  0  0  0  0  0  0  0  0  0  0  0
    1.7077   -0.1031   -3.5198 C   0  0  0  0  0  0  0  0  0  0  0  0
    2.4933    0.0109   -4.6329 N   0  0  0  0  0  0  0  0  0  0  0  0
    3.3465    1.0819   -4.5067 C   0  0  0  0  0  0  0  0  0  0  0  0
    4.3163    1.5725   -5.3894 C   0  0  0  0  0  0  0  0  0  0  0  0
    5.0471    2.6954   -4.9904 C   0  0  0  0  0  0  0  0  0  0  0  0
    4.8155    3.3011   -3.7578 C   0  0  0  0  0  0  0  0  0  0  0  0
    3.8419    2.7974   -2.8876 C   0  0  0  0  0  0  0  0  0  0  0  0
    3.0902    1.6656   -3.2656 C   0  0  0  0  0  0  0  0  0  0  0  0
    2.4556   -0.5998   -5.4364 H   0  0  0  0  0  0  0  0  0  0  0  0
  1  2  1  0
  2  3  1  0
  3  4  2  0
  4  5  1  0
  5  6  1  0
  6  7  1  0
  7 12  1  0
 12 13  2  0
 13 14  1  0
 14 15  2  0
 15 16  1  0
 15 17  1  0
 17 18  2  0
  7  8  1  0
  8  9  1  0
  9 10  1  0
  8 11  1  0
 11 19  1  0
 19 20  1  0
 20 21  2  0
 21 22  1  0
 22 23  1  0
 23 24  2  0
 24 25  1  0
 25 26  2  0
 26 27  1  0
 27 28  2  0
 10  2  1  0
 28 20  1  0
 11  4  1  0
 28 23  1  0
 18 12  1  0
 22 29  1  0
M  END
> <input_smiles>
CN1CCN(C2CC3=CNC4=CC=CC=C34)C(CCC2=C1)c5ccc(Cl)cc5

> <prot_variant_index>
0

> <minimizedAffinity>
0.00000

> <CNNscore>
0.5275512934

> <CNNaffinity>
4.2994523048

> <CNN_VS>
2.2681815624

> <CNNaffinity_variance>
2.3102719784

$$$$
LSD__p0


 29 33  0  0  0  0  0  0  0  0999 V2000
    7.1914    0.9993   -0.7493 C   0  0  0  0  0  0  0  0  0  0  0  0
    6.5475   -0.2546   -0.3395 N   0  0  0  0  0  0  0  0  0  0  0  0
    5.5347   -0.1921    0.6117 C   0  0  0  0  0  0  0  0  0  0  0  0
    5.0562   -1.2666    1.2534 C   0  0  0  0  0  0  0  0  0  0  0  0
    3.6201   -1.3663    1.6602 C   0  0  0  0  0  0  0  0  0  0  0  0
    3.0386   -2.6400    1.0072 C   0  0  0  0  0  0  0  0  0  0  0  0
    3.8550   -3.2042   -0.2196 C   0  0  0  0  0  0  0  0  0  0  0  0
    5.3449   -3.2124   -0.0585 N   0  0  0  0  0  0  0  0  0  0  0  0
    6.1863   -2.7019   -1.1638 C   0  0  0  0  0  0  0  0  0  0  0  0
    6.3152   -1.1822   -1.4960 C   0  0  0  0  0  0  0  0  0  0  0  0
    5.7387   -2.6119    1.2353 C   0  0  0  0  0  0  0  0  0  0  0  0
    3.3009   -2.7449   -1.5694 C   0  0  0  0  0  0  0  0  0  0  0  0
    3.3227   -3.5567   -2.7142 C   0  0  0  0  0  0  0  0  0  0  0  0
    2.8156   -3.0943   -3.9325 C   0  0  0  0  0  0  0  0  0  0  0  0
    2.2810   -1.8124   -4.0203 C   0  0  0  0  0  0  0  0  0  0  0  0
    1.6530   -1.2476   -5.5189 Cl  0  0  0  0  0  0  0  0  0  0  0  0
    2.2483   -0.9876   -2.9006 C   0  0  0  0  0  0  0  0  0  0  0  0
    2.7561   -1.4513   -1.6844 C   0  0  0  0  0  0  0  0  0  0  0  0
    7.2523   -2.6438    1.5946 C   0  0  0  0  0  0  0  0  0  0  0  0
    7.5283   -2.1931    3.0038 C   0  0  0  0  0  0  0  0  0  0  0  0
    7.2562   -2.9037    4.1569 C   0  0  0  0  0  0  0  0  0  0  0  0
    7.6593   -2.1569    5.2288 N   0  0  0  0  0  0  0  0  0  0  0  0
    8.1913   -0.9619    4.8045 C   0  0  0  0  0  0  0  0  0  0  0  0
    8.7246    0.1016    5.5426 C   0  0  0  0  0  0  0  0  0  0  0  0
    9.2002    1.2084    4.8334 C   0  0  0  0  0  0  0  0  0  0  0  0
    9.1434    1.2475    3.4423 C   0  0  0  0  0  0  0  0  0  0  0  0
    8.6070    0.1752    2.7203 C   0  0  0  0  0  0  0  0  0  0  0  0
    8.1202   -0.9539    3.4111 C   0  0  0  0  0  0  0  0  0  0  0  0
    7.5816   -2.4381    6.1957 H   0  0  0  0  0  0  0  0  0  0  0  0
  1  2  1  0
  2  3  1  0
  3  4  2  0
  4  5  1  0
  5  6  1  0
  6  7  1  0
  7 12  1  0
 12 13  2  0
 13 14  1  0
 14 15  2  0
 15 16  1  0
 15 17  1  0
 17 18  2  0
  7  8  1  0
  8  9  1  0
  9 10  1  0
  8 11  1  0
 11 19  1  0
 19 20  1  0
 20 21  2  0
 21 22  1  0
 22 23  1  0
 23 24  2  0
 24 25  1  0
 25 26  2  0
 26 27  1  0
 27 28  2  0
 10  2  1  0
 28 20  1  0
 11  4  1  0
 28 23  1  0
 18 12  1  0
 22 29  1  0
M  END
> <input_smiles>
CN1CCN(C2CC3=CNC4=CC=CC=C34)C(CCC2=C1)c5ccc(Cl)cc5

> <prot_variant_index>
0

> <minimizedAffinity>
0.00000

> <CNNscore>
0.5271216035

> <CNNaffinity>
4.2323346138

> <CNN_VS>
2.2309551239

> <CNNaffinity_variance>
2.9492776394

$$$$
LSD__p0


 29 33  0  0  0  0  0  0  0  0999 V2000
    3.9084   -0.5332    0.6420 C   0  0  0  0  0  0  0  0  0  0  0  0
    3.2541   -1.5063    1.5250 N   0  0  0  0  0  0  0  0  0  0  0  0
    3.8132   -1.7358    2.7777 C   0  0  0  0  0  0  0  0  0  0  0  0
    3.4744   -2.7693    3.5601 C   0  0  0  0  0  0  0  0  0  0  0  0
    3.4609   -2.6568    5.0518 C   0  0  0  0  0  0  0  0  0  0  0  0
    2.0368   -3.0139    5.5327 C   0  0  0  0  0  0  0  0  0  0  0  0
    0.9090   -2.9237    4.4328 C   0  0  0  0  0  0  0  0  0  0  0  0
    1.2688   -3.4784    3.0879 N   0  0  0  0  0  0  0  0  0  0  0  0
    0.9548   -2.6839    1.8796 C   0  0  0  0  0  0  0  0  0  0  0  0
    1.7576   -1.4080    1.4743 C   0  0  0  0  0  0  0  0  0  0  0  0
    2.6717   -3.9488    3.0697 C   0  0  0  0  0  0  0  0  0  0  0  0
    0.1509   -1.5953    4.4604 C   0  0  0  0  0  0  0  0  0  0  0  0
    0.7798   -0.3683    4.7227 C   0  0  0  0  0  0  0  0  0  0  0  0
    0.0478    0.8228    4.7498 C   0  0  0  0  0  0  0  0  0  0  0  0
   -1.3239    0.8002    4.5155 C   0  0  0  0  0  0  0  0  0  0  0  0
   -2.2215    2.2673    4.5441 Cl  0  0  0  0  0  0  0  0  0  0  0  0
   -1.9713   -0.4030    4.2539 C   0  0  0  0  0  0  0  0  0  0  0  0
   -1.2382   -1.5920    4.2280 C   0  0  0  0  0  0  0  0  0  0  0  0
    3.1626   -4.6492    1.7699 C   0  0  0  0  0  0  0  0  0  0  0  0
    4.5305   -5.2597    1.9155 C   0  0  0  0  0  0  0  0  0  0  0  0
    4.8449   -6.3982    2.6320 C   0  0  0  0  0  0  0  0  0  0  0  0
    6.1878   -6.6256    2.5130 N   0  0  0  0  0  0  0  0  0  0  0  0
    6.7684   -5.6543    1.7316 C   0  0  0  0  0  0  0  0  0  0  0  0
    8.1031   -5.4862    1.3434 C   0  0  0  0  0  0  0  0  0  0  0  0
    8.4091   -4.3892    0.5329 C   0  0  0  0  0  0  0  0  0  0  0  0
    7.4184   -3.4977    0.1284 C   0  0  0  0  0  0  0  0  0  0  0  0
    6.0889   -3.6810    0.5258 C   0  0  0  0  0  0  0  0  0  0  0  0
    5.7529   -4.7797    1.3435 C   0  0  0  0  0  0  0  0  0  0  0  0
    6.6869   -7.3956    2.9346 H   0  0  0  0  0  0  0  0  0  0  0  0
  1  2  1  0
  2  3  1  0
  3  4  2  0
  4  5  1  0
  5  6  1  0
  6  7  1  0
  7 12  1  0
 12 13  2  0
 13 14  1  0
 14 15  2  0
 15 16  1  0
 15 17  1  0
 17 18  2  0
  7  8  1  0
  8  9  1  0
  9 10  1  0
  8 11  1  0
 11 19  1  0
 19 20  1  0
 20 21  2  0
 21 22  1  0
 22 23  1  0
 23 24  2  0
 24 25  1  0
 25 26  2  0
 26 27  1  0
 27 28  2  0
 10  2  1  0
 28 20  1  0
 11  4  1  0
 28 23  1  0
 18 12  1  0
 22 29  1  0
M  END
> <input_smiles>
CN1CCN(C2CC3=CNC4=CC=CC=C34)C(CCC2=C1)c5ccc(Cl)cc5

> <prot_variant_index>
0

> <minimizedAffinity>
0.00000

> <CNNscore>
0.5250877738

> <CNNaffinity>
4.2397012711

> <CNN_VS>
2.2262153625

> <CNNaffinity_variance>
3.0857512951

$$$$
LSD__p0


 29 33  0  0  0  0  0  0  0  0999 V2000
    4.3350    0.3734    2.0646 C   0  0  0  0  0  0  0  0  0  0  0  0
    3.1348   -0.4633    2.1829 N   0  0  0  0  0  0  0  0  0  0  0  0
    3.2009   -1.5961    2.9873 C   0  0  0  0  0  0  0  0  0  0  0  0
    2.2787   -2.5679    2.9724 C   0  0  0  0  0  0  0  0  0  0  0  0
    1.9197   -3.3321    4.2073 C   0  0  0  0  0  0  0  0  0  0  0  0
    0.4018   -3.1587    4.4374 C   0  0  0  0  0  0  0  0  0  0  0  0
   -0.2587   -1.9322    3.6963 C   0  0  0  0  0  0  0  0  0  0  0  0
    0.1850   -1.7134    2.2817 N   0  0  0  0  0  0  0  0  0  0  0  0
    0.5512   -0.3459    1.8507 C   0  0  0  0  0  0  0  0  0  0  0  0
    1.8785    0.3509    2.2857 C   0  0  0  0  0  0  0  0  0  0  0  0
    1.2264   -2.6923    1.8985 C   0  0  0  0  0  0  0  0  0  0  0  0
   -0.3901   -0.6950    4.5864 C   0  0  0  0  0  0  0  0  0  0  0  0
   -1.4688    0.1978    4.4900 C   0  0  0  0  0  0  0  0  0  0  0  0
   -1.5454    1.3238    5.3155 C   0  0  0  0  0  0  0  0  0  0  0  0
   -0.5419    1.5708    6.2477 C   0  0  0  0  0  0  0  0  0  0  0  0
   -0.6408    2.9538    7.2657 Cl  0  0  0  0  0  0  0  0  0  0  0  0
    0.5384    0.7018    6.3626 C   0  0  0  0  0  0  0  0  0  0  0  0
    0.6133   -0.4223    5.5363 C   0  0  0  0  0  0  0  0  0  0  0  0
    1.7139   -2.6596    0.4212 C   0  0  0  0  0  0  0  0  0  0  0  0
    2.7589   -3.7020    0.1271 C   0  0  0  0  0  0  0  0  0  0  0  0
    4.0708   -3.4643   -0.2348 C   0  0  0  0  0  0  0  0  0  0  0  0
    4.6955   -4.6682   -0.4071 N   0  0  0  0  0  0  0  0  0  0  0  0
    3.8176   -5.6994   -0.1680 C   0  0  0  0  0  0  0  0  0  0  0  0
    4.0155   -7.0844   -0.2230 C   0  0  0  0  0  0  0  0  0  0  0  0
    2.9250   -7.9071    0.0740 C   0  0  0  0  0  0  0  0  0  0  0  0
    1.6877   -7.3640    0.4117 C   0  0  0  0  0  0  0  0  0  0  0  0
    1.5077   -5.9769    0.4619 C   0  0  0  0  0  0  0  0  0  0  0  0
    2.5915   -5.1240    0.1669 C   0  0  0  0  0  0  0  0  0  0  0  0
    5.6629   -4.7890   -0.6703 H   0  0  0  0  0  0  0  0  0  0  0  0
  1  2  1  0
  2  3  1  0
  3  4  2  0
  4  5  1  0
  5  6  1  0
  6  7  1  0
  7 12  1  0
 12 13  2  0
 13 14  1  0
 14 15  2  0
 15 16  1  0
 15 17  1  0
 17 18  2  0
  7  8  1  0
  8  9  1  0
  9 10  1  0
  8 11  1  0
 11 19  1  0
 19 20  1  0
 20 21  2  0
 21 22  1  0
 22 23  1  0
 23 24  2  0
 24 25  1  0
 25 26  2  0
 26 27  1  0
 27 28  2  0
 10  2  1  0
 28 20  1  0
 11  4  1  0
 28 23  1  0
 18 12  1  0
 22 29  1  0
M  END
> <input_smiles>
CN1CCN(C2CC3=CNC4=CC=CC=C34)C(CCC2=C1)c5ccc(Cl)cc5

> <prot_variant_index>
0

> <minimizedAffinity>
0.00000

> <CNNscore>
0.5250227451

> <CNNaffinity>
4.3785958290

> <CNN_VS>
2.2988624573

> <CNNaffinity_variance>
2.4686806202

$$$$
LSD__p0


 29 33  0  0  0  0  0  0  0  0999 V2000
    7.1913    0.9994   -0.7493 C   0  0  0  0  0  0  0  0  0  0  0  0
    6.3848   -0.1393   -0.2933 N   0  0  0  0  0  0  0  0  0  0  0  0
    5.5571    0.0423    0.8097 C   0  0  0  0  0  0  0  0  0  0  0  0
    4.9805   -0.9674    1.4751 C   0  0  0  0  0  0  0  0  0  0  0  0
    3.6295   -0.8278    2.1023 C   0  0  0  0  0  0  0  0  0  0  0  0
    2.7210   -1.9222    1.4994 C   0  0  0  0  0  0  0  0  0  0  0  0
    3.2196   -2.5396    0.1356 C   0  0  0  0  0  0  0  0  0  0  0  0
    4.6866   -2.8353    0.0554 N   0  0  0  0  0  0  0  0  0  0  0  0
    5.4363   -2.4126   -1.1485 C   0  0  0  0  0  0  0  0  0  0  0  0
    5.8067   -0.9235   -1.4346 C   0  0  0  0  0  0  0  0  0  0  0  0
    5.3783   -2.4113    1.2929 C   0  0  0  0  0  0  0  0  0  0  0  0
    2.5699   -1.8913   -1.0881 C   0  0  0  0  0  0  0  0  0  0  0  0
    2.2934   -0.5171   -1.1615 C   0  0  0  0  0  0  0  0  0  0  0  0
    1.6878    0.0342   -2.2948 C   0  0  0  0  0  0  0  0  0  0  0  0
    1.3503   -0.7837   -3.3690 C   0  0  0  0  0  0  0  0  0  0  0  0
    0.6100   -0.1024   -4.7643 Cl  0  0  0  0  0  0  0  0  0  0  0  0
    1.6129   -2.1490   -3.3210 C   0  0  0  0  0  0  0  0  0  0  0  0
    2.2174   -2.6980   -2.1874 C   0  0  0  0  0  0  0  0  0  0  0  0
    6.8933   -2.7485    1.4035 C   0  0  0  0  0  0  0  0  0  0  0  0
    7.5004   -2.2928    2.7031 C   0  0  0  0  0  0  0  0  0  0  0  0
    8.4834   -1.3338    2.8537 C   0  0  0  0  0  0  0  0  0  0  0  0
    8.7580   -1.2034    4.1867 N   0  0  0  0  0  0  0  0  0  0  0  0
    7.9747   -2.0627    4.9211 C   0  0  0  0  0  0  0  0  0  0  0  0
    7.9146   -2.2701    6.3045 C   0  0  0  0  0  0  0  0  0  0  0  0
    7.0089   -3.2240    6.7779 C   0  0  0  0  0  0  0  0  0  0  0  0
    6.1976   -3.9401    5.9011 C   0  0  0  0  0  0  0  0  0  0  0  0
    6.2709   -3.7198    4.5209 C   0  0  0  0  0  0  0  0  0  0  0  0
    7.1760   -2.7630    4.0167 C   0  0  0  0  0  0  0  0  0  0  0  0
    9.4362   -0.5677    4.5813 H   0  0  0  0  0  0  0  0  0  0  0  0
  1  2  1  0
  2  3  1  0
  3  4  2  0
  4  5  1  0
  5  6  1  0
  6  7  1  0
  7 12  1  0
 12 13  2  0
 13 14  1  0
 14 15  2  0
 15 16  1  0
 15 17  1  0
 17 18  2  0
  7  8  1  0
  8  9  1  0
  9 10  1  0
  8 11  1  0
 11 19  1  0
 19 20  1  0
 20 21  2  0
 21 22  1  0
 22 23  1  0
 23 24  2  0
 24 25  1  0
 25 26  2  0
 26 27  1  0
 27 28  2  0
 10  2  1  0
 28 20  1  0
 11  4  1  0
 28 23  1  0
 18 12  1  0
 22 29  1  0
M  END
> <input_smiles>
CN1CCN(C2CC3=CNC4=CC=CC=C34)C(CCC2=C1)c5ccc(Cl)cc5

> <prot_variant_index>
0

> <minimizedAffinity>
0.00000

> <CNNscore>
0.5233454108

> <CNNaffinity>
4.3068637848

> <CNN_VS>
2.2539772987

> <CNNaffinity_variance>
2.6619825363

$$$$
LSD__p0


 29 33  0  0  0  0  0  0  0  0999 V2000
   -2.9491    0.8440   -2.6776 C   0  0  0  0  0  0  0  0  0  0  0  0
   -2.2731    1.9305   -1.9583 N   0  0  0  0  0  0  0  0  0  0  0  0
   -1.8699    3.0467   -2.6835 C   0  0  0  0  0  0  0  0  0  0  0  0
   -1.0261    3.9721   -2.2075 C   0  0  0  0  0  0  0  0  0  0  0  0
   -1.1457    5.4151   -2.5836 C   0  0  0  0  0  0  0  0  0  0  0  0
   -1.3141    6.2240   -1.2782 C   0  0  0  0  0  0  0  0  0  0  0  0
   -1.7874    5.3924   -0.0235 C   0  0  0  0  0  0  0  0  0  0  0  0
   -1.1332    4.0557    0.1530 N   0  0  0  0  0  0  0  0  0  0  0  0
   -1.9797    2.8794    0.4526 C   0  0  0  0  0  0  0  0  0  0  0  0
   -2.8900    2.1983   -0.6169 C   0  0  0  0  0  0  0  0  0  0  0  0
   -0.2003    3.7742   -0.9606 C   0  0  0  0  0  0  0  0  0  0  0  0
   -3.2975    5.4671    0.2092 C   0  0  0  0  0  0  0  0  0  0  0  0
   -3.8689    5.4563    1.4912 C   0  0  0  0  0  0  0  0  0  0  0  0
   -5.2557    5.5150    1.6600 C   0  0  0  0  0  0  0  0  0  0  0  0
   -6.0883    5.5842    0.5470 C   0  0  0  0  0  0  0  0  0  0  0  0
   -7.7939    5.6616    0.7573 Cl  0  0  0  0  0  0  0  0  0  0  0  0
   -5.5472    5.5956   -0.7345 C   0  0  0  0  0  0  0  0  0  0  0  0
   -4.1613    5.5362   -0.9010 C   0  0  0  0  0  0  0  0  0  0  0  0
    0.6361    2.4656   -0.8645 C   0  0  0  0  0  0  0  0  0  0  0  0
    1.9046    2.6392   -0.0733 C   0  0  0  0  0  0  0  0  0  0  0  0
    3.1510    2.9449   -0.5846 C   0  0  0  0  0  0  0  0  0  0  0  0
    4.0364    3.0213    0.4543 N   0  0  0  0  0  0  0  0  0  0  0  0
    3.3971    2.7681    1.6452 C   0  0  0  0  0  0  0  0  0  0  0  0
    3.9002    2.7391    2.9516 C   0  0  0  0  0  0  0  0  0  0  0  0
    3.0043    2.4488    3.9847 C   0  0  0  0  0  0  0  0  0  0  0  0
    1.6603    2.1976    3.7193 C   0  0  0  0  0  0  0  0  0  0  0  0
    1.1744    2.2308    2.4072 C   0  0  0  0  0  0  0  0  0  0  0  0
    2.0568    2.5214    1.3461 C   0  0  0  0  0  0  0  0  0  0  0  0
    5.0196    3.2344    0.3661 H   0  0  0  0  0  0  0  0  0  0  0  0
  1  2  1  0
  2  3  1  0
  3  4  2  0
  4  5  1  0
  5  6  1  0
  6  7  1  0
  7 12  1  0
 12 13  2  0
 13 14  1  0
 14 15  2  0
 15 16  1  0
 15 17  1  0
 17 18  2  0
  7  8  1  0
  8  9  1  0
  9 10  1  0
  8 11  1  0
 11 19  1  0
 19 20  1  0
 20 21  2  0
 21 22  1  0
 22 23  1  0
 23 24  2  0
 24 25  1  0
 25 26  2  0
 26 27  1  0
 27 28  2  0
 10  2  1  0
 28 20  1  0
 11  4  1  0
 28 23  1  0
 18 12  1  0
 22 29  1  0
M  END
> <input_smiles>
CN1CCN(C2CC3=CNC4=CC=CC=C34)C(CCC2=C1)c5ccc(Cl)cc5

> <prot_variant_index>
0

> <minimizedAffinity>
0.00000

> <CNNscore>
0.5196402669

> <CNNaffinity>
4.2695813179

> <CNN_VS>
2.2186462879

> <CNNaffinity_variance>
2.9740078449

$$$$
LSD__p0


 29 33  0  0  0  0  0  0  0  0999 V2000
    5.8369    0.2742    0.2717 C   0  0  0  0  0  0  0  0  0  0  0  0
    4.4410   -0.1138    0.0360 N   0  0  0  0  0  0  0  0  0  0  0  0
    4.0616   -1.4171    0.3397 C   0  0  0  0  0  0  0  0  0  0  0  0
    2.9083   -1.9648   -0.0662 C   0  0  0  0  0  0  0  0  0  0  0  0
    2.1736   -2.9643    0.7698 C   0  0  0  0  0  0  0  0  0  0  0  0
    0.7552   -2.4067    1.0229 C   0  0  0  0  0  0  0  0  0  0  0  0
    0.5902   -0.8529    0.8036 C   0  0  0  0  0  0  0  0  0  0  0  0
    1.2716   -0.2929   -0.4080 N   0  0  0  0  0  0  0  0  0  0  0  0
    2.0761    0.9414   -0.2692 C   0  0  0  0  0  0  0  0  0  0  0  0
    3.4742    0.9661    0.4245 C   0  0  0  0  0  0  0  0  0  0  0  0
    2.0263   -1.3462   -1.1225 C   0  0  0  0  0  0  0  0  0  0  0  0
    0.7011   -0.0501    2.1010 C   0  0  0  0  0  0  0  0  0  0  0  0
    1.6053   -0.3805    3.1224 C   0  0  0  0  0  0  0  0  0  0  0  0
    1.6672    0.3734    4.2985 C   0  0  0  0  0  0  0  0  0  0  0  0
    0.8235    1.4673    4.4672 C   0  0  0  0  0  0  0  0  0  0  0  0
    0.9051    2.3964    5.9127 Cl  0  0  0  0  0  0  0  0  0  0  0  0
   -0.0822    1.8153    3.4703 C   0  0  0  0  0  0  0  0  0  0  0  0
   -0.1429    1.0603    2.2963 C   0  0  0  0  0  0  0  0  0  0  0  0
    2.7039   -0.9404   -2.4631 C   0  0  0  0  0  0  0  0  0  0  0  0
    3.2499   -2.1194   -3.2227 C   0  0  0  0  0  0  0  0  0  0  0  0
    2.5109   -3.0539   -3.9220 C   0  0  0  0  0  0  0  0  0  0  0  0
    3.3732   -3.9589   -4.4757 N   0  0  0  0  0  0  0  0  0  0  0  0
    4.6713   -3.6405   -4.1519 C   0  0  0  0  0  0  0  0  0  0  0  0
    5.8697   -4.2780   -4.4952 C   0  0  0  0  0  0  0  0  0  0  0  0
    7.0596   -3.7223   -4.0163 C   0  0  0  0  0  0  0  0  0  0  0  0
    7.0486   -2.5755   -3.2259 C   0  0  0  0  0  0  0  0  0  0  0  0
    5.8413   -1.9511   -2.8924 C   0  0  0  0  0  0  0  0  0  0  0  0
    4.6262   -2.4909   -3.3626 C   0  0  0  0  0  0  0  0  0  0  0  0
    3.1019   -4.7489   -5.0434 H   0  0  0  0  0  0  0  0  0  0  0  0
  1  2  1  0
  2  3  1  0
  3  4  2  0
  4  5  1  0
  5  6  1  0
  6  7  1  0
  7 12  1  0
 12 13  2  0
 13 14  1  0
 14 15  2  0
 15 16  1  0
 15 17  1  0
 17 18  2  0
  7  8  1  0
  8  9  1  0
  9 10  1  0
  8 11  1  0
 11 19  1  0
 19 20  1  0
 20 21  2  0
 21 22  1  0
 22 23  1  0
 23 24  2  0
 24 25  1  0
 25 26  2  0
 26 27  1  0
 27 28  2  0
 10  2  1  0
 28 20  1  0
 11  4  1  0
 28 23  1  0
 18 12  1  0
 22 29  1  0
M  END
> <input_smiles>
CN1CCN(C2CC3=CNC4=CC=CC=C34)C(CCC2=C1)c5ccc(Cl)cc5

> <prot_variant_index>
0

> <minimizedAffinity>
0.00000

> <CNNscore>
0.5172494650

> <CNNaffinity>
4.2674393654

> <CNN_VS>
2.2073307037

> <CNNaffinity_variance>
2.4719421864

$$$$
LSD__p0


 29 33  0  0  0  0  0  0  0  0999 V2000
    7.1914    0.9993   -0.7493 C   0  0  0  0  0  0  0  0  0  0  0  0
    6.5894   -0.3362   -0.6549 N   0  0  0  0  0  0  0  0  0  0  0  0
    5.5679   -0.5320    0.2684 C   0  0  0  0  0  0  0  0  0  0  0  0
    5.1230   -1.7421    0.6328 C   0  0  0  0  0  0  0  0  0  0  0  0
    3.6883   -1.9816    0.9823 C   0  0  0  0  0  0  0  0  0  0  0  0
    3.1575   -3.0849    0.0400 C   0  0  0  0  0  0  0  0  0  0  0  0
    4.0027   -3.3182   -1.2718 C   0  0  0  0  0  0  0  0  0  0  0  0
    5.4907   -3.3151   -1.0938 N   0  0  0  0  0  0  0  0  0  0  0  0
    6.3218   -2.5321   -2.0353 C   0  0  0  0  0  0  0  0  0  0  0  0
    6.3990   -0.9735   -2.0000 C   0  0  0  0  0  0  0  0  0  0  0  0
    5.8531   -3.0225    0.3108 C   0  0  0  0  0  0  0  0  0  0  0  0
    3.4429   -2.5733   -2.4850 C   0  0  0  0  0  0  0  0  0  0  0  0
    3.4386   -3.1226   -3.7767 C   0  0  0  0  0  0  0  0  0  0  0  0
    2.9272   -2.4034   -4.8613 C   0  0  0  0  0  0  0  0  0  0  0  0
    2.4143   -1.1243   -4.6666 C   0  0  0  0  0  0  0  0  0  0  0  0
    1.7810   -0.2436   -6.0015 Cl  0  0  0  0  0  0  0  0  0  0  0  0
    2.4077   -0.5569   -3.3964 C   0  0  0  0  0  0  0  0  0  0  0  0
    2.9198   -1.2769   -2.3142 C   0  0  0  0  0  0  0  0  0  0  0  0
    7.3641   -3.0882    0.6763 C   0  0  0  0  0  0  0  0  0  0  0  0
    7.6010   -3.3049    2.1467 C   0  0  0  0  0  0  0  0  0  0  0  0
    7.5901   -4.5190    2.8058 C   0  0  0  0  0  0  0  0  0  0  0  0
    7.8534   -4.2941    4.1284 N   0  0  0  0  0  0  0  0  0  0  0  0
    8.0356   -2.9503    4.3565 C   0  0  0  0  0  0  0  0  0  0  0  0
    8.3233   -2.2671    5.5443 C   0  0  0  0  0  0  0  0  0  0  0  0
    8.4563   -0.8772    5.4766 C   0  0  0  0  0  0  0  0  0  0  0  0
    8.3069   -0.2003    4.2685 C   0  0  0  0  0  0  0  0  0  0  0  0
    8.0194   -0.8993    3.0905 C   0  0  0  0  0  0  0  0  0  0  0  0
    7.8802   -2.3021    3.1308 C   0  0  0  0  0  0  0  0  0  0  0  0
    7.9091   -5.0085    4.8400 H   0  0  0  0  0  0  0  0  0  0  0  0
  1  2  1  0
  2  3  1  0
  3  4  2  0
  4  5  1  0
  5  6  1  0
  6  7  1  0
  7 12  1  0
 12 13  2  0
 13 14  1  0
 14 15  2  0
 15 16  1  0
 15 17  1  0
 17 18  2  0
  7  8  1  0
  8  9  1  0
  9 10  1  0
  8 11  1  0
 11 19  1  0
 19 20  1  0
 20 21  2  0
 21 22  1  0
 22 23  1  0
 23 24  2  0
 24 25  1  0
 25 26  2  0
 26 27  1  0
 27 28  2  0
 10  2  1  0
 28 20  1  0
 11  4  1  0
 28 23  1  0
 18 12  1  0
 22 29  1  0
M  END
> <input_smiles>
CN1CCN(C2CC3=CNC4=CC=CC=C34)C(CCC2=C1)c5ccc(Cl)cc5

> <prot_variant_index>
0

> <minimizedAffinity>
0.00000

> <CNNscore>
0.5167845488

> <CNNaffinity>
4.2268180847

> <CNN_VS>
2.1843543053

> <CNNaffinity_variance>
2.9373304844

$$$$
LSD__p0


 29 33  0  0  0  0  0  0  0  0999 V2000
   -2.9477    0.9602   -1.3312 C   0  0  0  0  0  0  0  0  0  0  0  0
   -2.0279    1.7615   -0.5147 N   0  0  0  0  0  0  0  0  0  0  0  0
   -1.2523    2.7239   -1.1526 C   0  0  0  0  0  0  0  0  0  0  0  0
   -0.2043    3.3287   -0.5774 C   0  0  0  0  0  0  0  0  0  0  0  0
    0.1485    4.7505   -0.8805 C   0  0  0  0  0  0  0  0  0  0  0  0
    0.1389    5.5273    0.4549 C   0  0  0  0  0  0  0  0  0  0  0  0
   -0.6555    4.8393    1.6319 C   0  0  0  0  0  0  0  0  0  0  0  0
   -0.4535    3.3611    1.7736 N   0  0  0  0  0  0  0  0  0  0  0  0
   -1.6372    2.4922    1.9577 C   0  0  0  0  0  0  0  0  0  0  0  0
   -2.6306    2.1603    0.8004 C   0  0  0  0  0  0  0  0  0  0  0  0
    0.4285    2.8445    0.7036 C   0  0  0  0  0  0  0  0  0  0  0  0
   -2.0841    5.3662    1.7783 C   0  0  0  0  0  0  0  0  0  0  0  0
   -2.8875    5.6963    0.6758 C   0  0  0  0  0  0  0  0  0  0  0  0
   -4.1852    6.1858    0.8536 C   0  0  0  0  0  0  0  0  0  0  0  0
   -4.6947    6.3521    2.1380 C   0  0  0  0  0  0  0  0  0  0  0  0
   -6.2933    6.9495    2.3541 Cl  0  0  0  0  0  0  0  0  0  0  0  0
   -3.9185    6.0331    3.2475 C   0  0  0  0  0  0  0  0  0  0  0  0
   -2.6219    5.5448    3.0677 C   0  0  0  0  0  0  0  0  0  0  0  0
    0.8179    1.3398    0.7774 C   0  0  0  0  0  0  0  0  0  0  0  0
    1.7292    0.9161   -0.3429 C   0  0  0  0  0  0  0  0  0  0  0  0
    1.4317    0.0048   -1.3377 C   0  0  0  0  0  0  0  0  0  0  0  0
    2.5156   -0.1006   -2.1642 N   0  0  0  0  0  0  0  0  0  0  0  0
    3.5274    0.7241   -1.7312 C   0  0  0  0  0  0  0  0  0  0  0  0
    4.8048    0.9409   -2.2618 C   0  0  0  0  0  0  0  0  0  0  0  0
    5.6350    1.8510   -1.6012 C   0  0  0  0  0  0  0  0  0  0  0  0
    5.2028    2.5160   -0.4563 C   0  0  0  0  0  0  0  0  0  0  0  0
    3.9223    2.2872    0.0605 C   0  0  0  0  0  0  0  0  0  0  0  0
    3.0643    1.3741   -0.5868 C   0  0  0  0  0  0  0  0  0  0  0  0
    2.5706   -0.6955   -2.9784 H   0  0  0  0  0  0  0  0  0  0  0  0
  1  2  1  0
  2  3  1  0
  3  4  2  0
  4  5  1  0
  5  6  1  0
  6  7  1  0
  7 12  1  0
 12 13  2  0
 13 14  1  0
 14 15  2  0
 15 16  1  0
 15 17  1  0
 17 18  2  0
  7  8  1  0
  8  9  1  0
  9 10  1  0
  8 11  1  0
 11 19  1  0
 19 20  1  0
 20 21  2  0
 21 22  1  0
 22 23  1  0
 23 24  2  0
 24 25  1  0
 25 26  2  0
 26 27  1  0
 27 28  2  0
 10  2  1  0
 28 20  1  0
 11  4  1  0
 28 23  1  0
 18 12  1  0
 22 29  1  0
M  END
> <input_smiles>
CN1CCN(C2CC3=CNC4=CC=CC=C34)C(CCC2=C1)c5ccc(Cl)cc5

> <prot_variant_index>
0

> <minimizedAffinity>
0.00000

> <CNNscore>
0.5164494514

> <CNNaffinity>
4.2331824303

> <CNN_VS>
2.1862246990

> <CNNaffinity_variance>
2.6063313484

$$$$
LSD__p0


 29 33  0  0  0  0  0  0  0  0999 V2000
    3.5573   -0.1065    2.5207 C   0  0  0  0  0  0  0  0  0  0  0  0
    2.5085   -1.1037    2.2753 N   0  0  0  0  0  0  0  0  0  0  0  0
    2.7101   -2.3975    2.7443 C   0  0  0  0  0  0  0  0  0  0  0  0
    1.9660   -3.4453    2.3654 C   0  0  0  0  0  0  0  0  0  0  0  0
    1.6597   -4.5728    3.2995 C   0  0  0  0  0  0  0  0  0  0  0  0
    0.1225   -4.6895    3.4002 C   0  0  0  0  0  0  0  0  0  0  0  0
   -0.6838   -3.4093    2.9519 C   0  0  0  0  0  0  0  0  0  0  0  0
   -0.1912   -2.7354    1.7073 N   0  0  0  0  0  0  0  0  0  0  0  0
   -0.0311   -1.2643    1.7063 C   0  0  0  0  0  0  0  0  0  0  0  0
    1.1299   -0.5395    2.4568 C   0  0  0  0  0  0  0  0  0  0  0  0
    1.0218   -3.4062    1.1894 C   0  0  0  0  0  0  0  0  0  0  0  0
   -1.0777   -2.5091    4.1244 C   0  0  0  0  0  0  0  0  0  0  0  0
   -2.2817   -1.7884    4.1561 C   0  0  0  0  0  0  0  0  0  0  0  0
   -2.5990   -0.9674    5.2426 C   0  0  0  0  0  0  0  0  0  0  0  0
   -1.7140   -0.8568    6.3110 C   0  0  0  0  0  0  0  0  0  0  0  0
   -2.1088    0.1498    7.6489 Cl  0  0  0  0  0  0  0  0  0  0  0  0
   -0.5137   -1.5600    6.3036 C   0  0  0  0  0  0  0  0  0  0  0  0
   -0.1983   -2.3792    5.2167 C   0  0  0  0  0  0  0  0  0  0  0  0
    1.5926   -2.8846   -0.1609 C   0  0  0  0  0  0  0  0  0  0  0  0
    2.7017   -3.7478   -0.6993 C   0  0  0  0  0  0  0  0  0  0  0  0
    2.5617   -5.0029   -1.2594 C   0  0  0  0  0  0  0  0  0  0  0  0
    3.7994   -5.4505   -1.6295 N   0  0  0  0  0  0  0  0  0  0  0  0
    4.7573   -4.5133   -1.3209 C   0  0  0  0  0  0  0  0  0  0  0  0
    6.1434   -4.5410   -1.5167 C   0  0  0  0  0  0  0  0  0  0  0  0
    6.8794   -3.4289   -1.0975 C   0  0  0  0  0  0  0  0  0  0  0  0
    6.2520   -2.3349   -0.5063 C   0  0  0  0  0  0  0  0  0  0  0  0
    4.8652   -2.3241   -0.3183 C   0  0  0  0  0  0  0  0  0  0  0  0
    4.0988   -3.4332   -0.7324 C   0  0  0  0  0  0  0  0  0  0  0  0
    3.9889   -6.3400   -2.0685 H   0  0  0  0  0  0  0  0  0  0  0  0
  1  2  1  0
  2  3  1  0
  3  4  2  0
  4  5  1  0
  5  6  1  0
  6  7  1  0
  7 12  1  0
 12 13  2  0
 13 14  1  0
 14 15  2  0
 15 16  1  0
 15 17  1  0
 17 18  2  0
  7  8  1  0
  8  9  1  0
  9 10  1  0
  8 11  1  0
 11 19  1  0
 19 20  1  0
 20 21  2  0
 21 22  1  0
 22 23  1  0
 23 24  2  0
 24 25  1  0
 25 26  2  0
 26 27  1  0
 27 28  2  0
 10  2  1  0
 28 20  1  0
 11  4  1  0
 28 23  1  0
 18 12  1  0
 22 29  1  0
M  END
> <input_smiles>
CN1CCN(C2CC3=CNC4=CC=CC=C34)C(CCC2=C1)c5ccc(Cl)cc5

> <prot_variant_index>
0

> <minimizedAffinity>
0.00000

> <CNNscore>
0.5129052401

> <CNNaffinity>
4.3230218887

> <CNN_VS>
2.2173006535

> <CNNaffinity_variance>
2.2961201668

$$$$
LSD__p0


 29 33  0  0  0  0  0  0  0  0999 V2000
    4.2325    0.8671    1.6588 C   0  0  0  0  0  0  0  0  0  0  0  0
    2.8011    0.8351    1.3347 N   0  0  0  0  0  0  0  0  0  0  0  0
    2.0980   -0.3391    1.5824 C   0  0  0  0  0  0  0  0  0  0  0  0
    0.8730   -0.5832    1.0979 C   0  0  0  0  0  0  0  0  0  0  0  0
   -0.1327   -1.3822    1.8648 C   0  0  0  0  0  0  0  0  0  0  0  0
   -1.3853   -0.4974    2.0521 C   0  0  0  0  0  0  0  0  0  0  0  0
   -1.1532    1.0520    1.8646 C   0  0  0  0  0  0  0  0  0  0  0  0
   -0.2832    1.4423    0.7084 N   0  0  0  0  0  0  0  0  0  0  0  0
    0.7877    2.4405    0.9245 C   0  0  0  0  0  0  0  0  0  0  0  0
    2.1047    2.1142    1.6963 C   0  0  0  0  0  0  0  0  0  0  0  0
    0.2344    0.2446    0.0102 C   0  0  0  0  0  0  0  0  0  0  0  0
   -0.9294    1.7881    3.1868 C   0  0  0  0  0  0  0  0  0  0  0  0
   -0.1966    1.2349    4.2483 C   0  0  0  0  0  0  0  0  0  0  0  0
   -0.0248    1.9370    5.4454 C   0  0  0  0  0  0  0  0  0  0  0  0
   -0.5857    3.2018    5.5950 C   0  0  0  0  0  0  0  0  0  0  0  0
   -0.3687    4.0658    7.0666 Cl  0  0  0  0  0  0  0  0  0  0  0  0
   -1.3172    3.7722    4.5583 C   0  0  0  0  0  0  0  0  0  0  0  0
   -1.4883    3.0687    3.3634 C   0  0  0  0  0  0  0  0  0  0  0  0
    1.0709    0.4879   -1.2790 C   0  0  0  0  0  0  0  0  0  0  0  0
    1.3860   -0.7836   -2.0202 C   0  0  0  0  0  0  0  0  0  0  0  0
    0.4965   -1.5416   -2.7569 C   0  0  0  0  0  0  0  0  0  0  0  0
    1.1696   -2.6121   -3.2767 N   0  0  0  0  0  0  0  0  0  0  0  0
    2.4899   -2.5769   -2.8937 C   0  0  0  0  0  0  0  0  0  0  0  0
    3.5387   -3.4570   -3.1869 C   0  0  0  0  0  0  0  0  0  0  0  0
    4.7972   -3.1662   -2.6524 C   0  0  0  0  0  0  0  0  0  0  0  0
    4.9960   -2.0404   -1.8568 C   0  0  0  0  0  0  0  0  0  0  0  0
    3.9361   -1.1712   -1.5739 C   0  0  0  0  0  0  0  0  0  0  0  0
    2.6560   -1.4410   -2.1008 C   0  0  0  0  0  0  0  0  0  0  0  0
    0.7614   -3.3281   -3.8604 H   0  0  0  0  0  0  0  0  0  0  0  0
  1  2  1  0
  2  3  1  0
  3  4  2  0
  4  5  1  0
  5  6  1  0
  6  7  1  0
  7 12  1  0
 12 13  2  0
 13 14  1  0
 14 15  2  0
 15 16  1  0
 15 17  1  0
 17 18  2  0
  7  8  1  0
  8  9  1  0
  9 10  1  0
  8 11  1  0
 11 19  1  0
 19 20  1  0
 20 21  2  0
 21 22  1  0
 22 23  1  0
 23 24  2  0
 24 25  1  0
 25 26  2  0
 26 27  1  0
 27 28  2  0
 10  2  1  0
 28 20  1  0
 11  4  1  0
 28 23  1  0
 18 12  1  0
 22 29  1  0
M  END
> <input_smiles>
CN1CCN(C2CC3=CNC4=CC=CC=C34)C(CCC2=C1)c5ccc(Cl)cc5

> <prot_variant_index>
0

> <minimizedAffinity>
0.00000

> <CNNscore>
0.5128229260

> <CNNaffinity>
4.2375617027

> <CNN_VS>
2.1731188297

> <CNNaffinity_variance>
2.6092276573

$$$$
LSD__p0


 29 33  0  0  0  0  0  0  0  0999 V2000
   -2.9477    0.9602   -1.3312 C   0  0  0  0  0  0  0  0  0  0  0  0
   -2.1654    2.0949   -0.8260 N   0  0  0  0  0  0  0  0  0  0  0  0
   -1.5876    2.9578   -1.7512 C   0  0  0  0  0  0  0  0  0  0  0  0
   -0.6500    3.8609   -1.4344 C   0  0  0  0  0  0  0  0  0  0  0  0
   -0.5616    5.1820   -2.1306 C   0  0  0  0  0  0  0  0  0  0  0  0
   -0.6773    6.2842   -1.0542 C   0  0  0  0  0  0  0  0  0  0  0  0
   -1.3096    5.8265    0.3171 C   0  0  0  0  0  0  0  0  0  0  0  0
   -0.8459    4.4985    0.8340 N   0  0  0  0  0  0  0  0  0  0  0  0
   -1.8524    3.5322    1.3271 C   0  0  0  0  0  0  0  0  0  0  0  0
   -2.7983    2.7361    0.3741 C   0  0  0  0  0  0  0  0  0  0  0  0
    0.0884    3.8589   -0.1188 C   0  0  0  0  0  0  0  0  0  0  0  0
   -2.8051    6.1319    0.4183 C   0  0  0  0  0  0  0  0  0  0  0  0
   -3.4251    6.4954    1.6239 C   0  0  0  0  0  0  0  0  0  0  0  0
   -4.7981    6.7556    1.6757 C   0  0  0  0  0  0  0  0  0  0  0  0
   -5.5679    6.6541    0.5207 C   0  0  0  0  0  0  0  0  0  0  0  0
   -7.2558    6.9797    0.5857 Cl  0  0  0  0  0  0  0  0  0  0  0  0
   -4.9778    6.2948   -0.6867 C   0  0  0  0  0  0  0  0  0  0  0  0
   -3.6060    6.0346   -0.7360 C   0  0  0  0  0  0  0  0  0  0  0  0
    0.7396    2.5178    0.3266 C   0  0  0  0  0  0  0  0  0  0  0  0
    1.8355    2.0639   -0.5997 C   0  0  0  0  0  0  0  0  0  0  0  0
    3.1030    2.6054   -0.6929 C   0  0  0  0  0  0  0  0  0  0  0  0
    3.7992    1.9124   -1.6438 N   0  0  0  0  0  0  0  0  0  0  0  0
    3.0122    0.9225   -2.1841 C   0  0  0  0  0  0  0  0  0  0  0  0
    3.3033   -0.0213   -3.1765 C   0  0  0  0  0  0  0  0  0  0  0  0
    2.2935   -0.9201   -3.5322 C   0  0  0  0  0  0  0  0  0  0  0  0
    1.0439   -0.8745   -2.9187 C   0  0  0  0  0  0  0  0  0  0  0  0
    0.7701    0.0758   -1.9283 C   0  0  0  0  0  0  0  0  0  0  0  0
    1.7713    0.9944   -1.5505 C   0  0  0  0  0  0  0  0  0  0  0  0
    4.7550    2.0955   -1.9137 H   0  0  0  0  0  0  0  0  0  0  0  0
  1  2  1  0
  2  3  1  0
  3  4  2  0
  4  5  1  0
  5  6  1  0
  6  7  1  0
  7 12  1  0
 12 13  2  0
 13 14  1  0
 14 15  2  0
 15 16  1  0
 15 17  1  0
 17 18  2  0
  7  8  1  0
  8  9  1  0
  9 10  1  0
  8 11  1  0
 11 19  1  0
 19 20  1  0
 20 21  2  0
 21 22  1  0
 22 23  1  0
 23 24  2  0
 24 25  1  0
 25 26  2  0
 26 27  1  0
 27 28  2  0
 10  2  1  0
 28 20  1  0
 11  4  1  0
 28 23  1  0
 18 12  1  0
 22 29  1  0
M  END
> <input_smiles>
CN1CCN(C2CC3=CNC4=CC=CC=C34)C(CCC2=C1)c5ccc(Cl)cc5

> <prot_variant_index>
0

> <minimizedAffinity>
0.00000

> <CNNscore>
0.5122202039

> <CNNaffinity>
4.1191563606

> <CNN_VS>
2.1099150181

> <CNNaffinity_variance>
2.6151995659

$$$$
LSD__p0


 29 33  0  0  0  0  0  0  0  0999 V2000
   -2.8040    1.0040   -1.8411 C   0  0  0  0  0  0  0  0  0  0  0  0
   -1.6161    1.7234   -1.3656 N   0  0  0  0  0  0  0  0  0  0  0  0
   -0.7761    2.3013   -2.3118 C   0  0  0  0  0  0  0  0  0  0  0  0
    0.4548    2.7498   -2.0315 C   0  0  0  0  0  0  0  0  0  0  0  0
    1.0375    3.9387   -2.7278 C   0  0  0  0  0  0  0  0  0  0  0  0
    1.4105    4.9758   -1.6451 C   0  0  0  0  0  0  0  0  0  0  0  0
    0.6987    4.7831   -0.2502 C   0  0  0  0  0  0  0  0  0  0  0  0
    0.6125    3.3711    0.2445 N   0  0  0  0  0  0  0  0  0  0  0  0
   -0.6773    2.8772    0.7760 C   0  0  0  0  0  0  0  0  0  0  0  0
   -1.8963    2.5417   -0.1394 C   0  0  0  0  0  0  0  0  0  0  0  0
    1.1785    2.4296   -0.7470 C   0  0  0  0  0  0  0  0  0  0  0  0
   -0.5460    5.6574   -0.0874 C   0  0  0  0  0  0  0  0  0  0  0  0
   -1.4356    5.9144   -1.1422 C   0  0  0  0  0  0  0  0  0  0  0  0
   -2.5566    6.7289   -0.9542 C   0  0  0  0  0  0  0  0  0  0  0  0
   -2.8005    7.2974    0.2925 C   0  0  0  0  0  0  0  0  0  0  0  0
   -4.1829    8.2948    0.5228 Cl  0  0  0  0  0  0  0  0  0  0  0  0
   -1.9337    7.0589    1.3541 C   0  0  0  0  0  0  0  0  0  0  0  0
   -0.8139    6.2454    1.1639 C   0  0  0  0  0  0  0  0  0  0  0  0
    1.2563    0.9322   -0.3315 C   0  0  0  0  0  0  0  0  0  0  0  0
    2.4960    0.6081    0.4580 C   0  0  0  0  0  0  0  0  0  0  0  0
    3.6853    0.1234   -0.0511 C   0  0  0  0  0  0  0  0  0  0  0  0
    4.5647   -0.0349    0.9836 N   0  0  0  0  0  0  0  0  0  0  0  0
    3.9761    0.3345    2.1703 C   0  0  0  0  0  0  0  0  0  0  0  0
    4.4932    0.3394    3.4715 C   0  0  0  0  0  0  0  0  0  0  0  0
    3.6530    0.7730    4.5011 C   0  0  0  0  0  0  0  0  0  0  0  0
    2.3488    1.1844    4.2375 C   0  0  0  0  0  0  0  0  0  0  0  0
    1.8481    1.1731    2.9305 C   0  0  0  0  0  0  0  0  0  0  0  0
    2.6748    0.7404    1.8730 C   0  0  0  0  0  0  0  0  0  0  0  0
    5.5124   -0.3724    0.8951 H   0  0  0  0  0  0  0  0  0  0  0  0
  1  2  1  0
  2  3  1  0
  3  4  2  0
  4  5  1  0
  5  6  1  0
  6  7  1  0
  7 12  1  0
 12 13  2  0
 13 14  1  0
 14 15  2  0
 15 16  1  0
 15 17  1  0
 17 18  2  0
  7  8  1  0
  8  9  1  0
  9 10  1  0
  8 11  1  0
 11 19  1  0
 19 20  1  0
 20 21  2  0
 21 22  1  0
 22 23  1  0
 23 24  2  0
 24 25  1  0
 25 26  2  0
 26 27  1  0
 27 28  2  0
 10  2  1  0
 28 20  1  0
 11  4  1  0
 28 23  1  0
 18 12  1  0
 22 29  1  0
M  END
> <input_smiles>
CN1CCN(C2CC3=CNC4=CC=CC=C34)C(CCC2=C1)c5ccc(Cl)cc5

> <prot_variant_index>
0

> <minimizedAffinity>
0.00000

> <CNNscore>
0.5108468533

> <CNNaffinity>
4.4684581757

> <CNN_VS>
2.2826979160

> <CNNaffinity_variance>
2.9500751495

$$$$
LSD__p0


 29 33  0  0  0  0  0  0  0  0999 V2000
    4.3350    0.3734    2.0646 C   0  0  0  0  0  0  0  0  0  0  0  0
    3.1237   -0.4129    2.3271 N   0  0  0  0  0  0  0  0  0  0  0  0
    3.1675   -1.3689    3.3364 C   0  0  0  0  0  0  0  0  0  0  0  0
    2.2340   -2.3163    3.4981 C   0  0  0  0  0  0  0  0  0  0  0  0
    1.8525   -2.8232    4.8528 C   0  0  0  0  0  0  0  0  0  0  0  0
    0.3344   -2.5939    5.0252 C   0  0  0  0  0  0  0  0  0  0  0  0
   -0.3034   -1.5280    4.0522 C   0  0  0  0  0  0  0  0  0  0  0  0
    0.1583   -1.5918    2.6279 N   0  0  0  0  0  0  0  0  0  0  0  0
    0.5454   -0.3373    1.9450 C   0  0  0  0  0  0  0  0  0  0  0  0
    1.8761    0.4178    2.2540 C   0  0  0  0  0  0  0  0  0  0  0  0
    1.1920   -2.6363    2.4550 C   0  0  0  0  0  0  0  0  0  0  0  0
   -0.4296   -0.1406    4.6841 C   0  0  0  0  0  0  0  0  0  0  0  0
    0.5445    0.3938    5.5417 C   0  0  0  0  0  0  0  0  0  0  0  0
    0.3853    1.6625    6.1076 C   0  0  0  0  0  0  0  0  0  0  0  0
   -0.7522    2.4120    5.8227 C   0  0  0  0  0  0  0  0  0  0  0  0
   -0.9434    3.9747    6.5160 Cl  0  0  0  0  0  0  0  0  0  0  0  0
   -1.7329    1.9049    4.9765 C   0  0  0  0  0  0  0  0  0  0  0  0
   -1.5722    0.6367    4.4126 C   0  0  0  0  0  0  0  0  0  0  0  0
    1.6959   -2.8952    1.0058 C   0  0  0  0  0  0  0  0  0  0  0  0
    2.5695   -4.1162    0.8998 C   0  0  0  0  0  0  0  0  0  0  0  0
    2.1461   -5.4303    0.9476 C   0  0  0  0  0  0  0  0  0  0  0  0
    3.2386   -6.2406    0.8102 N   0  0  0  0  0  0  0  0  0  0  0  0
    4.3792   -5.4844    0.6753 C   0  0  0  0  0  0  0  0  0  0  0  0
    5.7116   -5.8818    0.5102 C   0  0  0  0  0  0  0  0  0  0  0  0
    6.6781   -4.8781    0.3982 C   0  0  0  0  0  0  0  0  0  0  0  0
    6.3238   -3.5321    0.4498 C   0  0  0  0  0  0  0  0  0  0  0  0
    4.9868   -3.1527    0.6153 C   0  0  0  0  0  0  0  0  0  0  0  0
    3.9916   -4.1453    0.7307 C   0  0  0  0  0  0  0  0  0  0  0  0
    3.2170   -7.2503    0.8060 H   0  0  0  0  0  0  0  0  0  0  0  0
  1  2  1  0
  2  3  1  0
  3  4  2  0
  4  5  1  0
  5  6  1  0
  6  7  1  0
  7 12  1  0
 12 13  2  0
 13 14  1  0
 14 15  2  0
 15 16  1  0
 15 17  1  0
 17 18  2  0
  7  8  1  0
  8  9  1  0
  9 10  1  0
  8 11  1  0
 11 19  1  0
 19 20  1  0
 20 21  2  0
 21 22  1  0
 22 23  1  0
 23 24  2  0
 24 25  1  0
 25 26  2  0
 26 27  1  0
 27 28  2  0
 10  2  1  0
 28 20  1  0
 11  4  1  0
 28 23  1  0
 18 12  1  0
 22 29  1  0
M  END
> <input_smiles>
CN1CCN(C2CC3=CNC4=CC=CC=C34)C(CCC2=C1)c5ccc(Cl)cc5

> <prot_variant_index>
0

> <minimizedAffinity>
0.00000

> <CNNscore>
0.5094734430

> <CNNaffinity>
4.2608361244

> <CNN_VS>
2.1707828045

> <CNNaffinity_variance>
2.4088571072

$$$$
LSD__p0


 29 33  0  0  0  0  0  0  0  0999 V2000
    3.5573   -0.1065   -1.3855 C   0  0  0  0  0  0  0  0  0  0  0  0
    4.0949   -1.4724   -1.3866 N   0  0  0  0  0  0  0  0  0  0  0  0
    3.2742   -2.5005   -1.8383 C   0  0  0  0  0  0  0  0  0  0  0  0
    3.5434   -3.7990   -1.6476 C   0  0  0  0  0  0  0  0  0  0  0  0
    3.1632   -4.8384   -2.6541 C   0  0  0  0  0  0  0  0  0  0  0  0
    4.4545   -5.5774   -3.0706 C   0  0  0  0  0  0  0  0  0  0  0  0
    5.8003   -4.8130   -2.7635 C   0  0  0  0  0  0  0  0  0  0  0  0
    5.8729   -4.1390   -1.4270 N   0  0  0  0  0  0  0  0  0  0  0  0
    6.3695   -2.7468   -1.3544 C   0  0  0  0  0  0  0  0  0  0  0  0
    5.5270   -1.5226   -1.8317 C   0  0  0  0  0  0  0  0  0  0  0  0
    4.5992   -4.2921   -0.6894 C   0  0  0  0  0  0  0  0  0  0  0  0
    6.3356   -4.0361   -3.9676 C   0  0  0  0  0  0  0  0  0  0  0  0
    5.4975   -3.3583   -4.8665 C   0  0  0  0  0  0  0  0  0  0  0  0
    6.0269   -2.6687   -5.9617 C   0  0  0  0  0  0  0  0  0  0  0  0
    7.4026   -2.6499   -6.1714 C   0  0  0  0  0  0  0  0  0  0  0  0
    8.0520   -1.7966   -7.5165 Cl  0  0  0  0  0  0  0  0  0  0  0  0
    8.2550   -3.3145   -5.2956 C   0  0  0  0  0  0  0  0  0  0  0  0
    7.7239   -4.0035   -4.2023 C   0  0  0  0  0  0  0  0  0  0  0  0
    4.5550   -3.7342    0.7625 C   0  0  0  0  0  0  0  0  0  0  0  0
    3.3077   -4.1330    1.5044 C   0  0  0  0  0  0  0  0  0  0  0  0
    3.0268   -5.3849    2.0166 C   0  0  0  0  0  0  0  0  0  0  0  0
    1.8019   -5.3382    2.6220 N   0  0  0  0  0  0  0  0  0  0  0  0
    1.2657   -4.0763    2.5165 C   0  0  0  0  0  0  0  0  0  0  0  0
    0.0459   -3.5718    2.9835 C   0  0  0  0  0  0  0  0  0  0  0  0
   -0.2404   -2.2279    2.7267 C   0  0  0  0  0  0  0  0  0  0  0  0
    0.6583   -1.4233    2.0304 C   0  0  0  0  0  0  0  0  0  0  0  0
    1.8734   -1.9442    1.5708 C   0  0  0  0  0  0  0  0  0  0  0  0
    2.1873   -3.2970    1.8166 C   0  0  0  0  0  0  0  0  0  0  0  0
    1.3513   -6.1152    3.0836 H   0  0  0  0  0  0  0  0  0  0  0  0
  1  2  1  0
  2  3  1  0
  3  4  2  0
  4  5  1  0
  5  6  1  0
  6  7  1  0
  7 12  1  0
 12 13  2  0
 13 14  1  0
 14 15  2  0
 15 16  1  0
 15 17  1  0
 17 18  2  0
  7  8  1  0
  8  9  1  0
  9 10  1  0
  8 11  1  0
 11 19  1  0
 19 20  1  0
 20 21  2  0
 21 22  1  0
 22 23  1  0
 23 24  2  0
 24 25  1  0
 25 26  2  0
 26 27  1  0
 27 28  2  0
 10  2  1  0
 28 20  1  0
 11  4  1  0
 28 23  1  0
 18 12  1  0
 22 29  1  0
M  END
> <input_smiles>
CN1CCN(C2CC3=CNC4=CC=CC=C34)C(CCC2=C1)c5ccc(Cl)cc5

> <prot_variant_index>
0

> <minimizedAffinity>
0.00000

> <CNNscore>
0.5067018867

> <CNNaffinity>
4.1609206200

> <CNN_VS>
2.1083462238

> <CNNaffinity_variance>
2.5919167995

$$$$
LSD__p0


 29 33  0  0  0  0  0  0  0  0999 V2000
    3.9084   -0.5331    0.6420 C   0  0  0  0  0  0  0  0  0  0  0  0
    3.2543   -1.5063    1.5250 N   0  0  0  0  0  0  0  0  0  0  0  0
    3.8135   -1.7358    2.7777 C   0  0  0  0  0  0  0  0  0  0  0  0
    3.4748   -2.7692    3.5602 C   0  0  0  0  0  0  0  0  0  0  0  0
    3.4614   -2.6567    5.0519 C   0  0  0  0  0  0  0  0  0  0  0  0
    2.0374   -3.0139    5.5329 C   0  0  0  0  0  0  0  0  0  0  0  0
    0.9095   -2.9238    4.4331 C   0  0  0  0  0  0  0  0  0  0  0  0
    1.2692   -3.4785    3.0882 N   0  0  0  0  0  0  0  0  0  0  0  0
    0.9551   -2.6840    1.8799 C   0  0  0  0  0  0  0  0  0  0  0  0
    1.7578   -1.4081    1.4745 C   0  0  0  0  0  0  0  0  0  0  0  0
    2.6721   -3.9488    3.0699 C   0  0  0  0  0  0  0  0  0  0  0  0
    0.1513   -1.5955    4.4608 C   0  0  0  0  0  0  0  0  0  0  0  0
    0.7801   -0.3685    4.7235 C   0  0  0  0  0  0  0  0  0  0  0  0
    0.0479    0.8226    4.7505 C   0  0  0  0  0  0  0  0  0  0  0  0
   -1.3237    0.7999    4.5158 C   0  0  0  0  0  0  0  0  0  0  0  0
   -2.2214    2.2670    4.5445 Cl  0  0  0  0  0  0  0  0  0  0  0  0
   -1.9710   -0.4032    4.2539 C   0  0  0  0  0  0  0  0  0  0  0  0
   -1.2377   -1.5922    4.2280 C   0  0  0  0  0  0  0  0  0  0  0  0
    3.1630   -4.6492    1.7700 C   0  0  0  0  0  0  0  0  0  0  0  0
    4.5945   -5.1057    1.8566 C   0  0  0  0  0  0  0  0  0  0  0  0
    5.6479   -4.6406    1.0934 C   0  0  0  0  0  0  0  0  0  0  0  0
    6.7826   -5.2994    1.4775 N   0  0  0  0  0  0  0  0  0  0  0  0
    6.4972   -6.1955    2.4809 C   0  0  0  0  0  0  0  0  0  0  0  0
    7.3391   -7.0753    3.1720 C   0  0  0  0  0  0  0  0  0  0  0  0
    6.7642   -7.8820    4.1582 C   0  0  0  0  0  0  0  0  0  0  0  0
    5.4021   -7.8100    4.4398 C   0  0  0  0  0  0  0  0  0  0  0  0
    4.5750   -6.9246    3.7391 C   0  0  0  0  0  0  0  0  0  0  0  0
    5.1295   -6.0991    2.7390 C   0  0  0  0  0  0  0  0  0  0  0  0
    7.7016   -5.1520    1.0856 H   0  0  0  0  0  0  0  0  0  0  0  0
  1  2  1  0
  2  3  1  0
  3  4  2  0
  4  5  1  0
  5  6  1  0
  6  7  1  0
  7 12  1  0
 12 13  2  0
 13 14  1  0
 14 15  2  0
 15 16  1  0
 15 17  1  0
 17 18  2  0
  7  8  1  0
  8  9  1  0
  9 10  1  0
  8 11  1  0
 11 19  1  0
 19 20  1  0
 20 21  2  0
 21 22  1  0
 22 23  1  0
 23 24  2  0
 24 25  1  0
 25 26  2  0
 26 27  1  0
 27 28  2  0
 10  2  1  0
 28 20  1  0
 11  4  1  0
 28 23  1  0
 18 12  1  0
 22 29  1  0
M  END
> <input_smiles>
CN1CCN(C2CC3=CNC4=CC=CC=C34)C(CCC2=C1)c5ccc(Cl)cc5

> <prot_variant_index>
0

> <minimizedAffinity>
0.00000

> <CNNscore>
0.5063736439

> <CNNaffinity>
4.4225449562

> <CNN_VS>
2.2394602299

> <CNNaffinity_variance>
1.8804860115

$$$$
LSD__p0


 29 33  0  0  0  0  0  0  0  0999 V2000
   -2.5726   -0.2446   -2.1986 C   0  0  0  0  0  0  0  0  0  0  0  0
   -1.8210    0.9625   -1.8341 N   0  0  0  0  0  0  0  0  0  0  0  0
   -1.5426    1.8892   -2.8333 C   0  0  0  0  0  0  0  0  0  0  0  0
   -0.6562    2.8839   -2.6926 C   0  0  0  0  0  0  0  0  0  0  0  0
   -0.8518    4.2125   -3.3517 C   0  0  0  0  0  0  0  0  0  0  0  0
   -0.8491    5.2875   -2.2421 C   0  0  0  0  0  0  0  0  0  0  0  0
   -1.1275    4.7544   -0.7833 C   0  0  0  0  0  0  0  0  0  0  0  0
   -0.4323    3.4788   -0.4152 N   0  0  0  0  0  0  0  0  0  0  0  0
   -1.2083    2.4074    0.2481 C   0  0  0  0  0  0  0  0  0  0  0  0
   -2.2480    1.5234   -0.5095 C   0  0  0  0  0  0  0  0  0  0  0  0
    0.3397    2.9494   -1.5613 C   0  0  0  0  0  0  0  0  0  0  0  0
   -2.5910    4.8989   -0.3622 C   0  0  0  0  0  0  0  0  0  0  0  0
   -2.9761    5.1845    0.9570 C   0  0  0  0  0  0  0  0  0  0  0  0
   -4.3263    5.2975    1.3026 C   0  0  0  0  0  0  0  0  0  0  0  0
   -5.3083    5.1248    0.3317 C   0  0  0  0  0  0  0  0  0  0  0  0
   -6.9685    5.2693    0.7582 Cl  0  0  0  0  0  0  0  0  0  0  0  0
   -4.9531    4.8402   -0.9828 C   0  0  0  0  0  0  0  0  0  0  0  0
   -3.6035    4.7271   -1.3259 C   0  0  0  0  0  0  0  0  0  0  0  0
    1.2034    1.6813   -1.3027 C   0  0  0  0  0  0  0  0  0  0  0  0
    2.4810    1.9840   -0.5670 C   0  0  0  0  0  0  0  0  0  0  0  0
    2.7607    1.6684    0.7485 C   0  0  0  0  0  0  0  0  0  0  0  0
    4.0234    2.1054    1.0378 N   0  0  0  0  0  0  0  0  0  0  0  0
    4.5835    2.7081   -0.0641 C   0  0  0  0  0  0  0  0  0  0  0  0
    5.8442    3.2945   -0.2292 C   0  0  0  0  0  0  0  0  0  0  0  0
    6.1468    3.8387   -1.4807 C   0  0  0  0  0  0  0  0  0  0  0  0
    5.2241    3.7971   -2.5232 C   0  0  0  0  0  0  0  0  0  0  0  0
    3.9683    3.2068   -2.3406 C   0  0  0  0  0  0  0  0  0  0  0  0
    3.6373    2.6501   -1.0878 C   0  0  0  0  0  0  0  0  0  0  0  0
    4.4845    2.0018    1.9303 H   0  0  0  0  0  0  0  0  0  0  0  0
  1  2  1  0
  2  3  1  0
  3  4  2  0
  4  5  1  0
  5  6  1  0
  6  7  1  0
  7 12  1  0
 12 13  2  0
 13 14  1  0
 14 15  2  0
 15 16  1  0
 15 17  1  0
 17 18  2  0
  7  8  1  0
  8  9  1  0
  9 10  1  0
  8 11  1  0
 11 19  1  0
 19 20  1  0
 20 21  2  0
 21 22  1  0
 22 23  1  0
 23 24  2  0
 24 25  1  0
 25 26  2  0
 26 27  1  0
 27 28  2  0
 10  2  1  0
 28 20  1  0
 11  4  1  0
 28 23  1  0
 18 12  1  0
 22 29  1  0
M  END
> <input_smiles>
CN1CCN(C2CC3=CNC4=CC=CC=C34)C(CCC2=C1)c5ccc(Cl)cc5

> <prot_variant_index>
0

> <minimizedAffinity>
0.00000

> <CNNscore>
0.5047944188

> <CNNaffinity>
4.1953926086

> <CNN_VS>
2.1178107262

> <CNNaffinity_variance>
2.9468777180

$$$$
LSD__p0


 29 33  0  0  0  0  0  0  0  0999 V2000
    3.6285    2.2585   -4.1996 C   0  0  0  0  0  0  0  0  0  0  0  0
    2.4499    1.6701   -3.5519 N   0  0  0  0  0  0  0  0  0  0  0  0
    2.3409    0.2838   -3.5218 C   0  0  0  0  0  0  0  0  0  0  0  0
    1.2113   -0.3619   -3.2022 C   0  0  0  0  0  0  0  0  0  0  0  0
    1.2302   -1.6716   -2.4795 C   0  0  0  0  0  0  0  0  0  0  0  0
    0.4118   -1.4985   -1.1806 C   0  0  0  0  0  0  0  0  0  0  0  0
    0.1993   -0.0078   -0.7088 C   0  0  0  0  0  0  0  0  0  0  0  0
   -0.1359    0.9735   -1.7907 N   0  0  0  0  0  0  0  0  0  0  0  0
    0.5835    2.2661   -1.8314 C   0  0  0  0  0  0  0  0  0  0  0  0
    2.0691    2.3929   -2.2932 C   0  0  0  0  0  0  0  0  0  0  0  0
   -0.1331    0.3173   -3.1170 C   0  0  0  0  0  0  0  0  0  0  0  0
    1.2133    0.4361    0.3472 C   0  0  0  0  0  0  0  0  0  0  0  0
    0.8877    1.3217    1.3863 C   0  0  0  0  0  0  0  0  0  0  0  0
    1.8478    1.7113    2.3253 C   0  0  0  0  0  0  0  0  0  0  0  0
    3.1467    1.2196    2.2351 C   0  0  0  0  0  0  0  0  0  0  0  0
    4.3248    1.6962    3.3944 Cl  0  0  0  0  0  0  0  0  0  0  0  0
    3.4952    0.3412    1.2142 C   0  0  0  0  0  0  0  0  0  0  0  0
    2.5346   -0.0462    0.2767 C   0  0  0  0  0  0  0  0  0  0  0  0
   -0.5669    1.1858   -4.3330 C   0  0  0  0  0  0  0  0  0  0  0  0
   -2.0571    1.1943   -4.5434 C   0  0  0  0  0  0  0  0  0  0  0  0
   -2.7677    0.3637   -5.3882 C   0  0  0  0  0  0  0  0  0  0  0  0
   -4.0938    0.6816   -5.2905 N   0  0  0  0  0  0  0  0  0  0  0  0
   -4.2727    1.7114   -4.3968 C   0  0  0  0  0  0  0  0  0  0  0  0
   -5.4456    2.3559   -3.9851 C   0  0  0  0  0  0  0  0  0  0  0  0
   -5.3240    3.3868   -3.0489 C   0  0  0  0  0  0  0  0  0  0  0  0
   -4.0787    3.7563   -2.5464 C   0  0  0  0  0  0  0  0  0  0  0  0
   -2.9164    3.1011   -2.9690 C   0  0  0  0  0  0  0  0  0  0  0  0
   -3.0107    2.0573   -3.9127 C   0  0  0  0  0  0  0  0  0  0  0  0
   -4.8397    0.2277   -5.7980 H   0  0  0  0  0  0  0  0  0  0  0  0
  1  2  1  0
  2  3  1  0
  3  4  2  0
  4  5  1  0
  5  6  1  0
  6  7  1  0
  7 12  1  0
 12 13  2  0
 13 14  1  0
 14 15  2  0
 15 16  1  0
 15 17  1  0
 17 18  2  0
  7  8  1  0
  8  9  1  0
  9 10  1  0
  8 11  1  0
 11 19  1  0
 19 20  1  0
 20 21  2  0
 21 22  1  0
 22 23  1  0
 23 24  2  0
 24 25  1  0
 25 26  2  0
 26 27  1  0
 27 28  2  0
 10  2  1  0
 28 20  1  0
 11  4  1  0
 28 23  1  0
 18 12  1  0
 22 29  1  0
M  END
> <input_smiles>
CN1CCN(C2CC3=CNC4=CC=CC=C34)C(CCC2=C1)c5ccc(Cl)cc5

> <prot_variant_index>
0

> <minimizedAffinity>
0.00000

> <CNNscore>
0.5043390989

> <CNNaffinity>
4.3602633476

> <CNN_VS>
2.1990513802

> <CNNaffinity_variance>
2.0992844105

$$$$
LSD__p1


 30 34  0  0  0  0  0  0  0  0999 V2000
    0.9950    4.2550   -4.4813 C   0  0  0  0  0  0  0  0  0  0  0  0
    0.5168    3.0249   -3.7569 N   0  0  0  0  0  0  0  0  0  0  0  0
    0.4180    1.9112   -4.6626 C   0  0  0  0  0  0  0  0  0  0  0  0
    0.1477    0.7003   -4.1405 C   0  0  0  0  0  0  0  0  0  0  0  0
   -0.4055   -0.4138   -4.9861 C   0  0  0  0  0  0  0  0  0  0  0  0
   -1.6474   -1.0561   -4.3321 C   0  0  0  0  0  0  0  0  0  0  0  0
   -2.3664   -0.2254   -3.2125 C   0  0  0  0  0  0  0  0  0  0  0  0
   -1.4962    0.7746   -2.5113 N   0  0  0  0  0  0  0  0  0  0  0  0
   -1.8578    2.1608   -2.9462 C   0  0  0  0  0  0  0  0  0  0  0  0
   -0.7779    3.2933   -2.9452 C   0  0  0  0  0  0  0  0  0  0  0  0
   -0.0593    0.4956   -2.6593 C   0  0  0  0  0  0  0  0  0  0  0  0
    1.2564    2.8243   -3.0686 H   0  0  0  0  0  0  0  0  0  0  0  0
   -3.1437   -1.1100   -2.2272 C   0  0  0  0  0  0  0  0  0  0  0  0
   -3.4189   -0.6555   -0.9232 C   0  0  0  0  0  0  0  0  0  0  0  0
   -4.0992   -1.4608   -0.0032 C   0  0  0  0  0  0  0  0  0  0  0  0
   -4.4999   -2.7420   -0.3663 C   0  0  0  0  0  0  0  0  0  0  0  0
   -5.3496   -3.7261    0.7580 Cl  0  0  0  0  0  0  0  0  0  0  0  0
   -4.2137   -3.2283   -1.6360 C   0  0  0  0  0  0  0  0  0  0  0  0
   -3.5356   -2.4207   -2.5552 C   0  0  0  0  0  0  0  0  0  0  0  0
    0.5298   -0.8217   -2.0744 C   0  0  0  0  0  0  0  0  0  0  0  0
    0.1133   -1.1088   -0.6573 C   0  0  0  0  0  0  0  0  0  0  0  0
    0.2094   -0.2565    0.4287 C   0  0  0  0  0  0  0  0  0  0  0  0
   -0.2575   -0.9132    1.5372 N   0  0  0  0  0  0  0  0  0  0  0  0
   -0.6373   -2.1913    1.2080 C   0  0  0  0  0  0  0  0  0  0  0  0
   -1.1564   -3.2104    2.0160 C   0  0  0  0  0  0  0  0  0  0  0  0
   -1.4381   -4.4380    1.4115 C   0  0  0  0  0  0  0  0  0  0  0  0
   -1.2012   -4.6381    0.0551 C   0  0  0  0  0  0  0  0  0  0  0  0
   -0.6789   -3.6084   -0.7364 C   0  0  0  0  0  0  0  0  0  0  0  0
   -0.3998   -2.3527   -0.1568 C   0  0  0  0  0  0  0  0  0  0  0  0
   -0.2970   -0.5342    2.4737 H   0  0  0  0  0  0  0  0  0  0  0  0
  1  2  1  0
  2  3  1  0
  3  4  2  0
  4  5  1  0
  5  6  1  0
  6  7  1  0
  7 13  1  0
 13 14  2  0
 14 15  1  0
 15 16  2  0
 16 17  1  0
 16 18  1  0
 18 19  2  0
  7  8  1  0
  8  9  1  0
  9 10  1  0
  8 11  1  0
 11 20  1  0
 20 21  1  0
 21 22  2  0
 22 23  1  0
 23 24  1  0
 24 25  2  0
 25 26  1  0
 26 27  2  0
 27 28  1  0
 28 29  2  0
 10  2  1  0
 29 21  1  0
 11  4  1  0
 29 24  1  0
 19 13  1  0
  2 12  1  0
 23 30  1  0
M  CHG 1   2   1
M  END
> <input_smiles>
CN1CCN(C2CC3=CNC4=CC=CC=C34)C(CCC2=C1)c5ccc(Cl)cc5

> <prot_variant_index>
1

> <minimizedAffinity>
0.00000

> <CNNscore>
0.8047264814

> <CNNaffinity>
4.9339537621

> <CNN_VS>
3.9704833031

> <CNNaffinity_variance>
1.9291553497

$$$$
LSD__p1


 30 34  0  0  0  0  0  0  0  0999 V2000
   -0.3108    4.7307   -3.6344 C   0  0  0  0  0  0  0  0  0  0  0  0
   -1.0309    3.5642   -3.0119 N   0  0  0  0  0  0  0  0  0  0  0  0
   -1.4569    2.6345   -4.0242 C   0  0  0  0  0  0  0  0  0  0  0  0
   -1.9838    1.4641   -3.6189 C   0  0  0  0  0  0  0  0  0  0  0  0
   -2.8456    0.6335   -4.5298 C   0  0  0  0  0  0  0  0  0  0  0  0
   -4.1643    0.2228   -3.8404 C   0  0  0  0  0  0  0  0  0  0  0  0
   -4.5856    1.0453   -2.5729 C   0  0  0  0  0  0  0  0  0  0  0  0
   -3.4542    1.7100   -1.8470 N   0  0  0  0  0  0  0  0  0  0  0  0
   -3.4900    3.1872   -2.0880 C   0  0  0  0  0  0  0  0  0  0  0  0
   -2.1666    4.0220   -2.0592 C   0  0  0  0  0  0  0  0  0  0  0  0
   -2.1422    1.1212   -2.1573 C   0  0  0  0  0  0  0  0  0  0  0  0
   -0.3220    3.1057   -2.4218 H   0  0  0  0  0  0  0  0  0  0  0  0
   -5.4938    0.2479   -1.6259 C   0  0  0  0  0  0  0  0  0  0  0  0
   -5.5673    0.5792   -0.2593 C   0  0  0  0  0  0  0  0  0  0  0  0
   -6.3661   -0.1562    0.6231 C   0  0  0  0  0  0  0  0  0  0  0  0
   -7.0914   -1.2473    0.1568 C   0  0  0  0  0  0  0  0  0  0  0  0
   -8.0855   -2.1415    1.2369 Cl  0  0  0  0  0  0  0  0  0  0  0  0
   -7.0130   -1.6162   -1.1805 C   0  0  0  0  0  0  0  0  0  0  0  0
   -6.2156   -0.8783   -2.0616 C   0  0  0  0  0  0  0  0  0  0  0  0
   -1.8601   -0.3633   -1.7812 C   0  0  0  0  0  0  0  0  0  0  0  0
   -2.2457   -0.7275   -0.3732 C   0  0  0  0  0  0  0  0  0  0  0  0
   -1.8757   -0.0726    0.7884 C   0  0  0  0  0  0  0  0  0  0  0  0
   -2.4201   -0.7403    1.8542 N   0  0  0  0  0  0  0  0  0  0  0  0
   -3.1224   -1.8376    1.4196 C   0  0  0  0  0  0  0  0  0  0  0  0
   -3.8250   -2.8022    2.1522 C   0  0  0  0  0  0  0  0  0  0  0  0
   -4.4371   -3.8380    1.4418 C   0  0  0  0  0  0  0  0  0  0  0  0
   -4.3414   -3.9081    0.0555 C   0  0  0  0  0  0  0  0  0  0  0  0
   -3.6319   -2.9363   -0.6598 C   0  0  0  0  0  0  0  0  0  0  0  0
   -3.0171   -1.8696    0.0293 C   0  0  0  0  0  0  0  0  0  0  0  0
   -2.3069   -0.4892    2.8271 H   0  0  0  0  0  0  0  0  0  0  0  0
  1  2  1  0
  2  3  1  0
  3  4  2  0
  4  5  1  0
  5  6  1  0
  6  7  1  0
  7 13  1  0
 13 14  2  0
 14 15  1  0
 15 16  2  0
 16 17  1  0
 16 18  1  0
 18 19  2  0
  7  8  1  0
  8  9  1  0
  9 10  1  0
  8 11  1  0
 11 20  1  0
 20 21  1  0
 21 22  2  0
 22 23  1  0
 23 24  1  0
 24 25  2  0
 25 26  1  0
 26 27  2  0
 27 28  1  0
 28 29  2  0
 10  2  1  0
 29 21  1  0
 11  4  1  0
 29 24  1  0
 19 13  1  0
  2 12  1  0
 23 30  1  0
M  CHG 1   2   1
M  END
> <input_smiles>
CN1CCN(C2CC3=CNC4=CC=CC=C34)C(CCC2=C1)c5ccc(Cl)cc5

> <prot_variant_index>
1

> <minimizedAffinity>
0.00000

> <CNNscore>
0.7629522085

> <CNNaffinity>
4.8329787254

> <CNN_VS>
3.6873316765

> <CNNaffinity_variance>
2.0008287430

$$$$
LSD__p1


 30 34  0  0  0  0  0  0  0  0999 V2000
   -0.3108    4.7306   -3.6344 C   0  0  0  0  0  0  0  0  0  0  0  0
   -0.9261    3.4357   -3.1746 N   0  0  0  0  0  0  0  0  0  0  0  0
   -1.0834    2.5297   -4.2813 C   0  0  0  0  0  0  0  0  0  0  0  0
   -1.4813    1.2726   -4.0109 C   0  0  0  0  0  0  0  0  0  0  0  0
   -2.0935    0.3977   -5.0702 C   0  0  0  0  0  0  0  0  0  0  0  0
   -3.4141   -0.2372   -4.5848 C   0  0  0  0  0  0  0  0  0  0  0  0
   -4.1047    0.4289   -3.3439 C   0  0  0  0  0  0  0  0  0  0  0  0
   -3.1810    1.1898   -2.4403 N   0  0  0  0  0  0  0  0  0  0  0  0
   -3.4002    2.6614   -2.6071 C   0  0  0  0  0  0  0  0  0  0  0  0
   -2.2259    3.6656   -2.3592 C   0  0  0  0  0  0  0  0  0  0  0  0
   -1.7692    0.8096   -2.6032 C   0  0  0  0  0  0  0  0  0  0  0  0
   -0.2373    3.0384   -2.5197 H   0  0  0  0  0  0  0  0  0  0  0  0
   -4.9985   -0.5499   -2.5689 C   0  0  0  0  0  0  0  0  0  0  0  0
   -5.4213   -1.7545   -3.1629 C   0  0  0  0  0  0  0  0  0  0  0  0
   -6.2608   -2.6431   -2.4821 C   0  0  0  0  0  0  0  0  0  0  0  0
   -6.7065   -2.3331   -1.2018 C   0  0  0  0  0  0  0  0  0  0  0  0
   -7.7248   -3.4315   -0.3585 Cl  0  0  0  0  0  0  0  0  0  0  0  0
   -6.3307   -1.1366   -0.6036 C   0  0  0  0  0  0  0  0  0  0  0  0
   -5.4895   -0.2507   -1.2850 C   0  0  0  0  0  0  0  0  0  0  0  0
   -1.3239   -0.6449   -2.2702 C   0  0  0  0  0  0  0  0  0  0  0  0
   -1.9271   -1.2020   -1.0094 C   0  0  0  0  0  0  0  0  0  0  0  0
   -2.5536   -2.4263   -0.8552 C   0  0  0  0  0  0  0  0  0  0  0  0
   -2.9796   -2.5343    0.4429 N   0  0  0  0  0  0  0  0  0  0  0  0
   -2.6677   -1.3943    1.1423 C   0  0  0  0  0  0  0  0  0  0  0  0
   -2.9190   -1.0639    2.4796 C   0  0  0  0  0  0  0  0  0  0  0  0
   -2.5038    0.1930    2.9267 C   0  0  0  0  0  0  0  0  0  0  0  0
   -1.8707    1.0845    2.0664 C   0  0  0  0  0  0  0  0  0  0  0  0
   -1.6307    0.7380    0.7316 C   0  0  0  0  0  0  0  0  0  0  0  0
   -2.0242   -0.5307    0.2561 C   0  0  0  0  0  0  0  0  0  0  0  0
   -3.4773   -3.3217    0.8362 H   0  0  0  0  0  0  0  0  0  0  0  0
  1  2  1  0
  2  3  1  0
  3  4  2  0
  4  5  1  0
  5  6  1  0
  6  7  1  0
  7 13  1  0
 13 14  2  0
 14 15  1  0
 15 16  2  0
 16 17  1  0
 16 18  1  0
 18 19  2  0
  7  8  1  0
  8  9  1  0
  9 10  1  0
  8 11  1  0
 11 20  1  0
 20 21  1  0
 21 22  2  0
 22 23  1  0
 23 24  1  0
 24 25  2  0
 25 26  1  0
 26 27  2  0
 27 28  1  0
 28 29  2  0
 10  2  1  0
 29 21  1  0
 11  4  1  0
 29 24  1  0
 19 13  1  0
  2 12  1  0
 23 30  1  0
M  CHG 1   2   1
M  END
> <input_smiles>
CN1CCN(C2CC3=CNC4=CC=CC=C34)C(CCC2=C1)c5ccc(Cl)cc5

> <prot_variant_index>
1

> <minimizedAffinity>
0.00000

> <CNNscore>
0.7383584380

> <CNNaffinity>
4.4869799614

> <CNN_VS>
3.3129994869

> <CNNaffinity_variance>
2.1391181946

$$$$
LSD__p1


 30 34  0  0  0  0  0  0  0  0999 V2000
   -1.0359   -0.0382   -4.3541 C   0  0  0  0  0  0  0  0  0  0  0  0
   -1.5076   -0.1692   -2.9304 N   0  0  0  0  0  0  0  0  0  0  0  0
   -0.5048    0.3148   -2.0190 C   0  0  0  0  0  0  0  0  0  0  0  0
   -0.8323    0.4052   -0.7166 C   0  0  0  0  0  0  0  0  0  0  0  0
    0.2207    0.4629    0.3558 C   0  0  0  0  0  0  0  0  0  0  0  0
   -0.0554   -0.5640    1.4747 C   0  0  0  0  0  0  0  0  0  0  0  0
   -1.0436   -1.7333    1.1330 C   0  0  0  0  0  0  0  0  0  0  0  0
   -2.0221   -1.4330    0.0370 N   0  0  0  0  0  0  0  0  0  0  0  0
   -1.6445   -2.1802   -1.2041 C   0  0  0  0  0  0  0  0  0  0  0  0
   -2.0085   -1.6028   -2.6123 C   0  0  0  0  0  0  0  0  0  0  0  0
   -2.1958    0.0077   -0.2048 C   0  0  0  0  0  0  0  0  0  0  0  0
   -2.3307    0.4473   -2.8712 H   0  0  0  0  0  0  0  0  0  0  0  0
   -1.7283   -2.3118    2.3798 C   0  0  0  0  0  0  0  0  0  0  0  0
   -1.2043   -2.0627    3.6627 C   0  0  0  0  0  0  0  0  0  0  0  0
   -1.7980   -2.6073    4.8067 C   0  0  0  0  0  0  0  0  0  0  0  0
   -2.9158   -3.4255    4.6852 C   0  0  0  0  0  0  0  0  0  0  0  0
   -3.6554   -4.0820    6.0911 Cl  0  0  0  0  0  0  0  0  0  0  0  0
   -3.4353   -3.7139    3.4292 C   0  0  0  0  0  0  0  0  0  0  0  0
   -2.8417   -3.1666    2.2869 C   0  0  0  0  0  0  0  0  0  0  0  0
   -2.7790    0.9092    0.9229 C   0  0  0  0  0  0  0  0  0  0  0  0
   -3.9458    0.3045    1.6556 C   0  0  0  0  0  0  0  0  0  0  0  0
   -4.1094    0.2066    3.0263 C   0  0  0  0  0  0  0  0  0  0  0  0
   -5.2966   -0.4307    3.2763 N   0  0  0  0  0  0  0  0  0  0  0  0
   -5.9082   -0.7770    2.0963 C   0  0  0  0  0  0  0  0  0  0  0  0
   -7.1185   -1.4453    1.8744 C   0  0  0  0  0  0  0  0  0  0  0  0
   -7.4925   -1.6882    0.5503 C   0  0  0  0  0  0  0  0  0  0  0  0
   -6.6824   -1.2853   -0.5067 C   0  0  0  0  0  0  0  0  0  0  0  0
   -5.4740   -0.6211   -0.2654 C   0  0  0  0  0  0  0  0  0  0  0  0
   -5.0783   -0.3476    1.0610 C   0  0  0  0  0  0  0  0  0  0  0  0
   -5.6684   -0.6464    4.1915 H   0  0  0  0  0  0  0  0  0  0  0  0
  1  2  1  0
  2  3  1  0
  3  4  2  0
  4  5  1  0
  5  6  1  0
  6  7  1  0
  7 13  1  0
 13 14  2  0
 14 15  1  0
 15 16  2  0
 16 17  1  0
 16 18  1  0
 18 19  2  0
  7  8  1  0
  8  9  1  0
  9 10  1  0
  8 11  1  0
 11 20  1  0
 20 21  1  0
 21 22  2  0
 22 23  1  0
 23 24  1  0
 24 25  2  0
 25 26  1  0
 26 27  2  0
 27 28  1  0
 28 29  2  0
 10  2  1  0
 29 21  1  0
 11  4  1  0
 29 24  1  0
 19 13  1  0
  2 12  1  0
 23 30  1  0
M  CHG 1   2   1
M  END
> <input_smiles>
CN1CCN(C2CC3=CNC4=CC=CC=C34)C(CCC2=C1)c5ccc(Cl)cc5

> <prot_variant_index>
1

> <minimizedAffinity>
0.00000

> <CNNscore>
0.7310457230

> <CNNaffinity>
4.4484858513

> <CNN_VS>
3.2520465851

> <CNNaffinity_variance>
1.2268196344

$$$$
LSD__p1


 30 34  0  0  0  0  0  0  0  0999 V2000
    0.7873    5.8129   -4.5344 C   0  0  0  0  0  0  0  0  0  0  0  0
   -0.1902    4.7624   -4.0786 N   0  0  0  0  0  0  0  0  0  0  0  0
   -0.3879    3.7757   -5.1070 C   0  0  0  0  0  0  0  0  0  0  0  0
   -1.1184    2.6876   -4.7999 C   0  0  0  0  0  0  0  0  0  0  0  0
   -1.7512    1.8394   -5.8687 C   0  0  0  0  0  0  0  0  0  0  0  0
   -3.2464    1.5879   -5.5788 C   0  0  0  0  0  0  0  0  0  0  0  0
   -3.9396    2.5514   -4.5534 C   0  0  0  0  0  0  0  0  0  0  0  0
   -3.0120    3.1988   -3.5690 N   0  0  0  0  0  0  0  0  0  0  0  0
   -2.8360    4.6463   -3.9083 C   0  0  0  0  0  0  0  0  0  0  0  0
   -1.5059    5.3850   -3.5417 C   0  0  0  0  0  0  0  0  0  0  0  0
   -1.7284    2.4930   -3.4329 C   0  0  0  0  0  0  0  0  0  0  0  0
    0.2688    4.3115   -3.2741 H   0  0  0  0  0  0  0  0  0  0  0  0
   -5.1560    1.9105   -3.8697 C   0  0  0  0  0  0  0  0  0  0  0  0
   -5.5935    2.3706   -2.6128 C   0  0  0  0  0  0  0  0  0  0  0  0
   -6.6810    1.7778   -1.9621 C   0  0  0  0  0  0  0  0  0  0  0  0
   -7.3385    0.7024   -2.5495 C   0  0  0  0  0  0  0  0  0  0  0  0
   -8.6846   -0.0163   -1.7582 Cl  0  0  0  0  0  0  0  0  0  0  0  0
   -6.9084    0.2072   -3.7745 C   0  0  0  0  0  0  0  0  0  0  0  0
   -5.8224    0.8028   -4.4245 C   0  0  0  0  0  0  0  0  0  0  0  0
   -1.7102    1.0334   -2.8908 C   0  0  0  0  0  0  0  0  0  0  0  0
   -2.5226    0.8286   -1.6411 C   0  0  0  0  0  0  0  0  0  0  0  0
   -2.4475    1.5601   -0.4687 C   0  0  0  0  0  0  0  0  0  0  0  0
   -3.3399    1.0336    0.4282 N   0  0  0  0  0  0  0  0  0  0  0  0
   -3.9853   -0.0469   -0.1215 C   0  0  0  0  0  0  0  0  0  0  0  0
   -4.9591   -0.8879    0.4309 C   0  0  0  0  0  0  0  0  0  0  0  0
   -5.4325   -1.9390   -0.3586 C   0  0  0  0  0  0  0  0  0  0  0  0
   -4.9434   -2.1432   -1.6450 C   0  0  0  0  0  0  0  0  0  0  0  0
   -3.9674   -1.2939   -2.1794 C   0  0  0  0  0  0  0  0  0  0  0  0
   -3.4823   -0.2143   -1.4115 C   0  0  0  0  0  0  0  0  0  0  0  0
   -3.4923    1.3647    1.3713 H   0  0  0  0  0  0  0  0  0  0  0  0
  1  2  1  0
  2  3  1  0
  3  4  2  0
  4  5  1  0
  5  6  1  0
  6  7  1  0
  7 13  1  0
 13 14  2  0
 14 15  1  0
 15 16  2  0
 16 17  1  0
 16 18  1  0
 18 19  2  0
  7  8  1  0
  8  9  1  0
  9 10  1  0
  8 11  1  0
 11 20  1  0
 20 21  1  0
 21 22  2  0
 22 23  1  0
 23 24  1  0
 24 25  2  0
 25 26  1  0
 26 27  2  0
 27 28  1  0
 28 29  2  0
 10  2  1  0
 29 21  1  0
 11  4  1  0
 29 24  1  0
 19 13  1  0
  2 12  1  0
 23 30  1  0
M  CHG 1   2   1
M  END
> <input_smiles>
CN1CCN(C2CC3=CNC4=CC=CC=C34)C(CCC2=C1)c5ccc(Cl)cc5

> <prot_variant_index>
1

> <minimizedAffinity>
0.00000

> <CNNscore>
0.7295485735

> <CNNaffinity>
4.8495774269

> <CNN_VS>
3.5380022526

> <CNNaffinity_variance>
1.6877350807

$$$$
LSD__p1


 30 34  0  0  0  0  0  0  0  0999 V2000
   -2.2923    2.8150   -3.8723 C   0  0  0  0  0  0  0  0  0  0  0  0
   -2.2234    2.3547   -2.4404 N   0  0  0  0  0  0  0  0  0  0  0  0
   -2.1333    0.9202   -2.3744 C   0  0  0  0  0  0  0  0  0  0  0  0
   -1.9133    0.3605   -1.1702 C   0  0  0  0  0  0  0  0  0  0  0  0
   -2.2359   -1.0845   -0.9050 C   0  0  0  0  0  0  0  0  0  0  0  0
   -3.0754   -1.2493    0.3799 C   0  0  0  0  0  0  0  0  0  0  0  0
   -3.8012    0.0322    0.9196 C   0  0  0  0  0  0  0  0  0  0  0  0
   -3.1736    1.3318    0.5122 N   0  0  0  0  0  0  0  0  0  0  0  0
   -4.0217    2.0077   -0.5199 C   0  0  0  0  0  0  0  0  0  0  0  0
   -3.3670    2.9542   -1.5803 C   0  0  0  0  0  0  0  0  0  0  0  0
   -1.7734    1.1891    0.0839 C   0  0  0  0  0  0  0  0  0  0  0  0
   -1.3460    2.7563   -2.0800 H   0  0  0  0  0  0  0  0  0  0  0  0
   -4.0715   -0.0335    2.4297 C   0  0  0  0  0  0  0  0  0  0  0  0
   -4.4034    1.1317    3.1471 C   0  0  0  0  0  0  0  0  0  0  0  0
   -4.6227    1.0948    4.5285 C   0  0  0  0  0  0  0  0  0  0  0  0
   -4.4960   -0.1056    5.2190 C   0  0  0  0  0  0  0  0  0  0  0  0
   -4.7809   -0.1551    6.9133 Cl  0  0  0  0  0  0  0  0  0  0  0  0
   -4.1385   -1.2650    4.5416 C   0  0  0  0  0  0  0  0  0  0  0  0
   -3.9220   -1.2264    3.1601 C   0  0  0  0  0  0  0  0  0  0  0  0
   -0.7072    0.6901    1.1032 C   0  0  0  0  0  0  0  0  0  0  0  0
   -0.8026    1.3323    2.4606 C   0  0  0  0  0  0  0  0  0  0  0  0
   -0.7953    0.6927    3.6878 C   0  0  0  0  0  0  0  0  0  0  0  0
   -0.9254    1.6393    4.6702 N   0  0  0  0  0  0  0  0  0  0  0  0
   -1.0428    2.8894    4.1137 C   0  0  0  0  0  0  0  0  0  0  0  0
   -1.2049    4.1357    4.7310 C   0  0  0  0  0  0  0  0  0  0  0  0
   -1.3210    5.2580    3.9068 C   0  0  0  0  0  0  0  0  0  0  0  0
   -1.2847    5.1344    2.5215 C   0  0  0  0  0  0  0  0  0  0  0  0
   -1.1251    3.8795    1.9220 C   0  0  0  0  0  0  0  0  0  0  0  0
   -0.9890    2.7303    2.7291 C   0  0  0  0  0  0  0  0  0  0  0  0
   -0.9594    1.4563    5.6640 H   0  0  0  0  0  0  0  0  0  0  0  0
  1  2  1  0
  2  3  1  0
  3  4  2  0
  4  5  1  0
  5  6  1  0
  6  7  1  0
  7 13  1  0
 13 14  2  0
 14 15  1  0
 15 16  2  0
 16 17  1  0
 16 18  1  0
 18 19  2  0
  7  8  1  0
  8  9  1  0
  9 10  1  0
  8 11  1  0
 11 20  1  0
 20 21  1  0
 21 22  2  0
 22 23  1  0
 23 24  1  0
 24 25  2  0
 25 26  1  0
 26 27  2  0
 27 28  1  0
 28 29  2  0
 10  2  1  0
 29 21  1  0
 11  4  1  0
 29 24  1  0
 19 13  1  0
  2 12  1  0
 23 30  1  0
M  CHG 1   2   1
M  END
> <input_smiles>
CN1CCN(C2CC3=CNC4=CC=CC=C34)C(CCC2=C1)c5ccc(Cl)cc5

> <prot_variant_index>
1

> <minimizedAffinity>
0.00000

> <CNNscore>
0.7084607482

> <CNNaffinity>
4.5447788239

> <CNN_VS>
3.2197973728

> <CNNaffinity_variance>
1.5836095810

$$$$
LSD__p1


 30 34  0  0  0  0  0  0  0  0999 V2000
    0.0403    4.3039   -5.5132 C   0  0  0  0  0  0  0  0  0  0  0  0
   -0.3971    3.4954   -4.3208 N   0  0  0  0  0  0  0  0  0  0  0  0
   -0.1405    2.0962   -4.5371 C   0  0  0  0  0  0  0  0  0  0  0  0
   -0.3371    1.2557   -3.5043 C   0  0  0  0  0  0  0  0  0  0  0  0
   -0.5324   -0.2202   -3.7191 C   0  0  0  0  0  0  0  0  0  0  0  0
   -1.7783   -0.7400   -2.9705 C   0  0  0  0  0  0  0  0  0  0  0  0
   -2.8296    0.3324   -2.5176 C   0  0  0  0  0  0  0  0  0  0  0  0
   -2.2809    1.7157   -2.3329 N   0  0  0  0  0  0  0  0  0  0  0  0
   -2.7390    2.6007   -3.4502 C   0  0  0  0  0  0  0  0  0  0  0  0
   -1.8588    3.8112   -3.9075 C   0  0  0  0  0  0  0  0  0  0  0  0
   -0.8203    1.7403   -2.1588 C   0  0  0  0  0  0  0  0  0  0  0  0
    0.2016    3.8242   -3.5498 H   0  0  0  0  0  0  0  0  0  0  0  0
   -3.6612   -0.1277   -1.3116 C   0  0  0  0  0  0  0  0  0  0  0  0
   -4.4085    0.8016   -0.5630 C   0  0  0  0  0  0  0  0  0  0  0  0
   -5.1471    0.4041    0.5569 C   0  0  0  0  0  0  0  0  0  0  0  0
   -5.1362   -0.9274    0.9579 C   0  0  0  0  0  0  0  0  0  0  0  0
   -6.0559   -1.4196    2.3240 Cl  0  0  0  0  0  0  0  0  0  0  0  0
   -4.3823   -1.8604    0.2566 C   0  0  0  0  0  0  0  0  0  0  0  0
   -3.6464   -1.4614   -0.8642 C   0  0  0  0  0  0  0  0  0  0  0  0
   -0.1838    1.0378   -0.9235 C   0  0  0  0  0  0  0  0  0  0  0  0
   -0.8953    1.3071    0.3747 C   0  0  0  0  0  0  0  0  0  0  0  0
   -1.2829    0.3755    1.3218 C   0  0  0  0  0  0  0  0  0  0  0  0
   -1.9207    1.0335    2.3407 N   0  0  0  0  0  0  0  0  0  0  0  0
   -1.9830    2.3791    2.0725 C   0  0  0  0  0  0  0  0  0  0  0  0
   -2.5479    3.4189    2.8210 C   0  0  0  0  0  0  0  0  0  0  0  0
   -2.4856    4.7095    2.2894 C   0  0  0  0  0  0  0  0  0  0  0  0
   -1.8893    4.9460    1.0548 C   0  0  0  0  0  0  0  0  0  0  0  0
   -1.3325    3.8932    0.3191 C   0  0  0  0  0  0  0  0  0  0  0  0
   -1.3661    2.5818    0.8382 C   0  0  0  0  0  0  0  0  0  0  0  0
   -2.3178    0.6012    3.1640 H   0  0  0  0  0  0  0  0  0  0  0  0
  1  2  1  0
  2  3  1  0
  3  4  2  0
  4  5  1  0
  5  6  1  0
  6  7  1  0
  7 13  1  0
 13 14  2  0
 14 15  1  0
 15 16  2  0
 16 17  1  0
 16 18  1  0
 18 19  2  0
  7  8  1  0
  8  9  1  0
  9 10  1  0
  8 11  1  0
 11 20  1  0
 20 21  1  0
 21 22  2  0
 22 23  1  0
 23 24  1  0
 24 25  2  0
 25 26  1  0
 26 27  2  0
 27 28  1  0
 28 29  2  0
 10  2  1  0
 29 21  1  0
 11  4  1  0
 29 24  1  0
 19 13  1  0
  2 12  1  0
 23 30  1  0
M  CHG 1   2   1
M  END
> <input_smiles>
CN1CCN(C2CC3=CNC4=CC=CC=C34)C(CCC2=C1)c5ccc(Cl)cc5

> <prot_variant_index>
1

> <minimizedAffinity>
0.00000

> <CNNscore>
0.6969173551

> <CNNaffinity>
4.4802660942

> <CNN_VS>
3.1223752499

> <CNNaffinity_variance>
0.9344941974

$$$$
LSD__p1


 30 34  0  0  0  0  0  0  0  0999 V2000
   -2.9477    0.9437   -0.5788 C   0  0  0  0  0  0  0  0  0  0  0  0
   -1.6220    1.0692    0.1238 N   0  0  0  0  0  0  0  0  0  0  0  0
   -1.0681   -0.2311    0.3939 C   0  0  0  0  0  0  0  0  0  0  0  0
    0.1843   -0.2897    0.8837 C   0  0  0  0  0  0  0  0  0  0  0  0
    0.6900   -1.5102    1.6027 C   0  0  0  0  0  0  0  0  0  0  0  0
    1.3411   -1.1413    2.9528 C   0  0  0  0  0  0  0  0  0  0  0  0
    0.9955    0.2708    3.5420 C   0  0  0  0  0  0  0  0  0  0  0  0
    0.5778    1.2931    2.5275 N   0  0  0  0  0  0  0  0  0  0  0  0
   -0.8944    1.5444    2.6313 C   0  0  0  0  0  0  0  0  0  0  0  0
   -1.7082    1.9885    1.3705 C   0  0  0  0  0  0  0  0  0  0  0  0
    0.9953    0.9536    1.1583 C   0  0  0  0  0  0  0  0  0  0  0  0
   -1.0135    1.5516   -0.5530 H   0  0  0  0  0  0  0  0  0  0  0  0
    2.0854    0.8006    4.4849 C   0  0  0  0  0  0  0  0  0  0  0  0
    3.0478   -0.0730    5.0264 C   0  0  0  0  0  0  0  0  0  0  0  0
    4.0290    0.3876    5.9111 C   0  0  0  0  0  0  0  0  0  0  0  0
    4.0532    1.7272    6.2835 C   0  0  0  0  0  0  0  0  0  0  0  0
    5.2679    2.2973    7.3578 Cl  0  0  0  0  0  0  0  0  0  0  0  0
    3.0965    2.6055    5.7893 C   0  0  0  0  0  0  0  0  0  0  0  0
    2.1178    2.1434    4.9031 C   0  0  0  0  0  0  0  0  0  0  0  0
    2.5124    0.8539    0.8221 C   0  0  0  0  0  0  0  0  0  0  0  0
    3.3514    1.9484    1.4238 C   0  0  0  0  0  0  0  0  0  0  0  0
    4.5245    1.7998    2.1428 C   0  0  0  0  0  0  0  0  0  0  0  0
    4.9555    3.0418    2.5299 N   0  0  0  0  0  0  0  0  0  0  0  0
    4.0760    4.0055    2.1007 C   0  0  0  0  0  0  0  0  0  0  0  0
    4.1094    5.3943    2.2764 C   0  0  0  0  0  0  0  0  0  0  0  0
    3.0558    6.1414    1.7437 C   0  0  0  0  0  0  0  0  0  0  0  0
    2.0081    5.5208    1.0705 C   0  0  0  0  0  0  0  0  0  0  0  0
    1.9902    4.1306    0.9074 C   0  0  0  0  0  0  0  0  0  0  0  0
    3.0489    3.3518    1.4204 C   0  0  0  0  0  0  0  0  0  0  0  0
    5.7842    3.2343    3.0762 H   0  0  0  0  0  0  0  0  0  0  0  0
  1  2  1  0
  2  3  1  0
  3  4  2  0
  4  5  1  0
  5  6  1  0
  6  7  1  0
  7 13  1  0
 13 14  2  0
 14 15  1  0
 15 16  2  0
 16 17  1  0
 16 18  1  0
 18 19  2  0
  7  8  1  0
  8  9  1  0
  9 10  1  0
  8 11  1  0
 11 20  1  0
 20 21  1  0
 21 22  2  0
 22 23  1  0
 23 24  1  0
 24 25  2  0
 25 26  1  0
 26 27  2  0
 27 28  1  0
 28 29  2  0
 10  2  1  0
 29 21  1  0
 11  4  1  0
 29 24  1  0
 19 13  1  0
  2 12  1  0
 23 30  1  0
M  CHG 1   2   1
M  END
> <input_smiles>
CN1CCN(C2CC3=CNC4=CC=CC=C34)C(CCC2=C1)c5ccc(Cl)cc5

> <prot_variant_index>
1

> <minimizedAffinity>
0.00000

> <CNNscore>
0.6966370344

> <CNNaffinity>
4.5681996346

> <CNN_VS>
3.1823771000

> <CNNaffinity_variance>
1.4907536507

$$$$
LSD__p1


 30 34  0  0  0  0  0  0  0  0999 V2000
    0.7873    5.8129   -4.5344 C   0  0  0  0  0  0  0  0  0  0  0  0
   -0.1902    4.7624   -4.0786 N   0  0  0  0  0  0  0  0  0  0  0  0
   -0.3879    3.7757   -5.1070 C   0  0  0  0  0  0  0  0  0  0  0  0
   -1.1184    2.6876   -4.7999 C   0  0  0  0  0  0  0  0  0  0  0  0
   -1.7512    1.8394   -5.8687 C   0  0  0  0  0  0  0  0  0  0  0  0
   -3.2464    1.5879   -5.5789 C   0  0  0  0  0  0  0  0  0  0  0  0
   -3.9397    2.5514   -4.5534 C   0  0  0  0  0  0  0  0  0  0  0  0
   -3.0120    3.1988   -3.5690 N   0  0  0  0  0  0  0  0  0  0  0  0
   -2.8360    4.6463   -3.9083 C   0  0  0  0  0  0  0  0  0  0  0  0
   -1.5059    5.3850   -3.5417 C   0  0  0  0  0  0  0  0  0  0  0  0
   -1.7284    2.4930   -3.4329 C   0  0  0  0  0  0  0  0  0  0  0  0
    0.2688    4.3115   -3.2741 H   0  0  0  0  0  0  0  0  0  0  0  0
   -5.1560    1.9106   -3.8697 C   0  0  0  0  0  0  0  0  0  0  0  0
   -5.7614    0.7635   -4.4178 C   0  0  0  0  0  0  0  0  0  0  0  0
   -6.8889    0.1850   -3.8245 C   0  0  0  0  0  0  0  0  0  0  0  0
   -7.4411    0.7551   -2.6826 C   0  0  0  0  0  0  0  0  0  0  0  0
   -8.8165    0.0360   -1.9440 Cl  0  0  0  0  0  0  0  0  0  0  0  0
   -6.8833    1.9054   -2.1383 C   0  0  0  0  0  0  0  0  0  0  0  0
   -5.7548    2.4809   -2.7315 C   0  0  0  0  0  0  0  0  0  0  0  0
   -1.7102    1.0334   -2.8908 C   0  0  0  0  0  0  0  0  0  0  0  0
   -2.6217    0.7992   -1.7168 C   0  0  0  0  0  0  0  0  0  0  0  0
   -3.5448   -0.2211   -1.5686 C   0  0  0  0  0  0  0  0  0  0  0  0
   -4.1827   -0.0568   -0.3668 N   0  0  0  0  0  0  0  0  0  0  0  0
   -3.7152    1.0667    0.2700 C   0  0  0  0  0  0  0  0  0  0  0  0
   -4.0849    1.6202    1.5020 C   0  0  0  0  0  0  0  0  0  0  0  0
   -3.4504    2.7996    1.9002 C   0  0  0  0  0  0  0  0  0  0  0  0
   -2.4915    3.4032    1.0928 C   0  0  0  0  0  0  0  0  0  0  0  0
   -2.1370    2.8370   -0.1373 C   0  0  0  0  0  0  0  0  0  0  0  0
   -2.7491    1.6375   -0.5582 C   0  0  0  0  0  0  0  0  0  0  0  0
   -4.9132   -0.6524   -0.0011 H   0  0  0  0  0  0  0  0  0  0  0  0
  1  2  1  0
  2  3  1  0
  3  4  2  0
  4  5  1  0
  5  6  1  0
  6  7  1  0
  7 13  1  0
 13 14  2  0
 14 15  1  0
 15 16  2  0
 16 17  1  0
 16 18  1  0
 18 19  2  0
  7  8  1  0
  8  9  1  0
  9 10  1  0
  8 11  1  0
 11 20  1  0
 20 21  1  0
 21 22  2  0
 22 23  1  0
 23 24  1  0
 24 25  2  0
 25 26  1  0
 26 27  2  0
 27 28  1  0
 28 29  2  0
 10  2  1  0
 29 21  1  0
 11  4  1  0
 29 24  1  0
 19 13  1  0
  2 12  1  0
 23 30  1  0
M  CHG 1   2   1
M  END
> <input_smiles>
CN1CCN(C2CC3=CNC4=CC=CC=C34)C(CCC2=C1)c5ccc(Cl)cc5

> <prot_variant_index>
1

> <minimizedAffinity>
0.00000

> <CNNscore>
0.6878862977

> <CNNaffinity>
4.2620139122

> <CNN_VS>
2.9317810535

> <CNNaffinity_variance>
1.2261294127

$$$$
LSD__p1


 30 34  0  0  0  0  0  0  0  0999 V2000
    1.2714    3.2036   -4.6859 C   0  0  0  0  0  0  0  0  0  0  0  0
    1.7357    1.9577   -3.9796 N   0  0  0  0  0  0  0  0  0  0  0  0
    1.7129    0.8311   -4.8744 C   0  0  0  0  0  0  0  0  0  0  0  0
    2.2415   -0.3273   -4.4377 C   0  0  0  0  0  0  0  0  0  0  0  0
    1.8880   -1.6421   -5.0770 C   0  0  0  0  0  0  0  0  0  0  0  0
    1.4731   -2.6898   -4.0220 C   0  0  0  0  0  0  0  0  0  0  0  0
    1.0663   -2.1464   -2.6079 C   0  0  0  0  0  0  0  0  0  0  0  0
    1.6519   -0.8126   -2.2517 N   0  0  0  0  0  0  0  0  0  0  0  0
    0.5916    0.2428   -2.3084 C   0  0  0  0  0  0  0  0  0  0  0  0
    0.9705    1.7220   -2.6506 C   0  0  0  0  0  0  0  0  0  0  0  0
    2.8338   -0.4662   -3.0562 C   0  0  0  0  0  0  0  0  0  0  0  0
    2.7137    2.1536   -3.7223 H   0  0  0  0  0  0  0  0  0  0  0  0
    1.2686   -3.1849   -1.4951 C   0  0  0  0  0  0  0  0  0  0  0  0
    1.4518   -2.7751   -0.1605 C   0  0  0  0  0  0  0  0  0  0  0  0
    1.6680   -3.7067    0.8608 C   0  0  0  0  0  0  0  0  0  0  0  0
    1.7227   -5.0636    0.5615 C   0  0  0  0  0  0  0  0  0  0  0  0
    1.9723   -6.2099    1.8178 Cl  0  0  0  0  0  0  0  0  0  0  0  0
    1.5768   -5.4943   -0.7515 C   0  0  0  0  0  0  0  0  0  0  0  0
    1.3584   -4.5615   -1.7708 C   0  0  0  0  0  0  0  0  0  0  0  0
    4.1126   -1.3494   -2.9593 C   0  0  0  0  0  0  0  0  0  0  0  0
    4.5451   -1.6574   -1.5514 C   0  0  0  0  0  0  0  0  0  0  0  0
    4.7564   -0.7511   -0.5272 C   0  0  0  0  0  0  0  0  0  0  0  0
    5.1640   -1.4413    0.5845 N   0  0  0  0  0  0  0  0  0  0  0  0
    5.2491   -2.7835    0.3063 C   0  0  0  0  0  0  0  0  0  0  0  0
    5.6308   -3.8492    1.1305 C   0  0  0  0  0  0  0  0  0  0  0  0
    5.6475   -5.1291    0.5705 C   0  0  0  0  0  0  0  0  0  0  0  0
    5.3042   -5.3307   -0.7626 C   0  0  0  0  0  0  0  0  0  0  0  0
    4.9281   -4.2526   -1.5724 C   0  0  0  0  0  0  0  0  0  0  0  0
    4.8862   -2.9508   -1.0299 C   0  0  0  0  0  0  0  0  0  0  0  0
    5.3983   -1.0323    1.4790 H   0  0  0  0  0  0  0  0  0  0  0  0
  1  2  1  0
  2  3  1  0
  3  4  2  0
  4  5  1  0
  5  6  1  0
  6  7  1  0
  7 13  1  0
 13 14  2  0
 14 15  1  0
 15 16  2  0
 16 17  1  0
 16 18  1  0
 18 19  2  0
  7  8  1  0
  8  9  1  0
  9 10  1  0
  8 11  1  0
 11 20  1  0
 20 21  1  0
 21 22  2  0
 22 23  1  0
 23 24  1  0
 24 25  2  0
 25 26  1  0
 26 27  2  0
 27 28  1  0
 28 29  2  0
 10  2  1  0
 29 21  1  0
 11  4  1  0
 29 24  1  0
 19 13  1  0
  2 12  1  0
 23 30  1  0
M  CHG 1   2   1
M  END
> <input_smiles>
CN1CCN(C2CC3=CNC4=CC=CC=C34)C(CCC2=C1)c5ccc(Cl)cc5

> <prot_variant_index>
1

> <minimizedAffinity>
0.00000

> <CNNscore>
0.6827981472

> <CNNaffinity>
4.8572516441

> <CNN_VS>
3.3165223598

> <CNNaffinity_variance>
1.1012037992

$$$$
LSD__p1


 30 34  0  0  0  0  0  0  0  0999 V2000
   -2.1083    4.0074   -4.0544 C   0  0  0  0  0  0  0  0  0  0  0  0
   -2.4276    3.5568   -2.6538 N   0  0  0  0  0  0  0  0  0  0  0  0
   -2.1877    2.1454   -2.5098 C   0  0  0  0  0  0  0  0  0  0  0  0
   -2.2822    1.6159   -1.2759 C   0  0  0  0  0  0  0  0  0  0  0  0
   -2.4918    0.1410   -1.0682 C   0  0  0  0  0  0  0  0  0  0  0  0
   -3.6590   -0.1323   -0.0957 C   0  0  0  0  0  0  0  0  0  0  0  0
   -4.6664    1.0451    0.1483 C   0  0  0  0  0  0  0  0  0  0  0  0
   -4.1075    2.4150   -0.0962 N   0  0  0  0  0  0  0  0  0  0  0  0
   -4.6729    2.9791   -1.3625 C   0  0  0  0  0  0  0  0  0  0  0  0
   -3.8445    4.0037   -2.2069 C   0  0  0  0  0  0  0  0  0  0  0  0
   -2.6371    2.4530   -0.0709 C   0  0  0  0  0  0  0  0  0  0  0  0
   -1.7595    4.0663   -2.0579 H   0  0  0  0  0  0  0  0  0  0  0  0
   -5.3780    0.9423    1.5051 C   0  0  0  0  0  0  0  0  0  0  0  0
   -6.0541    2.0542    2.0430 C   0  0  0  0  0  0  0  0  0  0  0  0
   -6.6815    1.9867    3.2918 C   0  0  0  0  0  0  0  0  0  0  0  0
   -6.6278    0.8108    4.0322 C   0  0  0  0  0  0  0  0  0  0  0  0
   -7.4118    0.7220    5.5593 Cl  0  0  0  0  0  0  0  0  0  0  0  0
   -5.9406   -0.2920    3.5401 C   0  0  0  0  0  0  0  0  0  0  0  0
   -5.3160   -0.2233    2.2903 C   0  0  0  0  0  0  0  0  0  0  0  0
   -1.8837    2.0922    1.2432 C   0  0  0  0  0  0  0  0  0  0  0  0
   -2.4696    2.7142    2.4816 C   0  0  0  0  0  0  0  0  0  0  0  0
   -2.7621    2.0782    3.6754 C   0  0  0  0  0  0  0  0  0  0  0  0
   -3.3026    2.9984    4.5352 N   0  0  0  0  0  0  0  0  0  0  0  0
   -3.3949    4.2244    3.9231 C   0  0  0  0  0  0  0  0  0  0  0  0
   -3.8900    5.4386    4.4144 C   0  0  0  0  0  0  0  0  0  0  0  0
   -3.8831    6.5385    3.5529 C   0  0  0  0  0  0  0  0  0  0  0  0
   -3.4076    6.4234    2.2504 C   0  0  0  0  0  0  0  0  0  0  0  0
   -2.9193    5.2004    1.7756 C   0  0  0  0  0  0  0  0  0  0  0  0
   -2.8988    4.0764    2.6281 C   0  0  0  0  0  0  0  0  0  0  0  0
   -3.6181    2.8106    5.4772 H   0  0  0  0  0  0  0  0  0  0  0  0
  1  2  1  0
  2  3  1  0
  3  4  2  0
  4  5  1  0
  5  6  1  0
  6  7  1  0
  7 13  1  0
 13 14  2  0
 14 15  1  0
 15 16  2  0
 16 17  1  0
 16 18  1  0
 18 19  2  0
  7  8  1  0
  8  9  1  0
  9 10  1  0
  8 11  1  0
 11 20  1  0
 20 21  1  0
 21 22  2  0
 22 23  1  0
 23 24  1  0
 24 25  2  0
 25 26  1  0
 26 27  2  0
 27 28  1  0
 28 29  2  0
 10  2  1  0
 29 21  1  0
 11  4  1  0
 29 24  1  0
 19 13  1  0
  2 12  1  0
 23 30  1  0
M  CHG 1   2   1
M  END
> <input_smiles>
CN1CCN(C2CC3=CNC4=CC=CC=C34)C(CCC2=C1)c5ccc(Cl)cc5

> <prot_variant_index>
1

> <minimizedAffinity>
0.00000

> <CNNscore>
0.6819779277

> <CNNaffinity>
4.4561924934

> <CNN_VS>
3.0390248299

> <CNNaffinity_variance>
1.2929800749

$$$$
LSD__p1


 30 34  0  0  0  0  0  0  0  0999 V2000
   -1.8629    2.1335   -5.1511 C   0  0  0  0  0  0  0  0  0  0  0  0
   -2.8561    1.0129   -4.9948 N   0  0  0  0  0  0  0  0  0  0  0  0
   -2.6968    0.0456   -6.0481 C   0  0  0  0  0  0  0  0  0  0  0  0
   -3.4097   -1.0933   -5.9668 C   0  0  0  0  0  0  0  0  0  0  0  0
   -3.6657   -1.9477   -7.1778 C   0  0  0  0  0  0  0  0  0  0  0  0
   -5.1627   -2.2980   -7.3159 C   0  0  0  0  0  0  0  0  0  0  0  0
   -6.1741   -1.4080   -6.5125 C   0  0  0  0  0  0  0  0  0  0  0  0
   -5.5988   -0.7336   -5.3029 N   0  0  0  0  0  0  0  0  0  0  0  0
   -5.4326    0.7310   -5.5650 C   0  0  0  0  0  0  0  0  0  0  0  0
   -4.3072    1.5386   -4.8367 C   0  0  0  0  0  0  0  0  0  0  0  0
   -4.3586   -1.3635   -4.8242 C   0  0  0  0  0  0  0  0  0  0  0  0
   -2.6078    0.5680   -4.0996 H   0  0  0  0  0  0  0  0  0  0  0  0
   -7.4865   -2.1409   -6.1990 C   0  0  0  0  0  0  0  0  0  0  0  0
   -7.8399   -3.3066   -6.9054 C   0  0  0  0  0  0  0  0  0  0  0  0
   -9.0462   -3.9693   -6.6536 C   0  0  0  0  0  0  0  0  0  0  0  0
   -9.9282   -3.4668   -5.7032 C   0  0  0  0  0  0  0  0  0  0  0  0
  -11.4031   -4.2890   -5.3819 Cl  0  0  0  0  0  0  0  0  0  0  0  0
   -9.6197   -2.3006   -5.0136 C   0  0  0  0  0  0  0  0  0  0  0  0
   -8.4121   -1.6409   -5.2651 C   0  0  0  0  0  0  0  0  0  0  0  0
   -4.3936   -2.8341   -4.3136 C   0  0  0  0  0  0  0  0  0  0  0  0
   -5.5759   -3.1568   -3.4407 C   0  0  0  0  0  0  0  0  0  0  0  0
   -6.4339   -4.2354   -3.5646 C   0  0  0  0  0  0  0  0  0  0  0  0
   -7.3881   -4.1445   -2.5851 N   0  0  0  0  0  0  0  0  0  0  0  0
   -7.1904   -3.0131   -1.8321 C   0  0  0  0  0  0  0  0  0  0  0  0
   -7.9217   -2.5184   -0.7453 C   0  0  0  0  0  0  0  0  0  0  0  0
   -7.5017   -1.3142   -0.1747 C   0  0  0  0  0  0  0  0  0  0  0  0
   -6.3997   -0.6304   -0.6784 C   0  0  0  0  0  0  0  0  0  0  0  0
   -5.6826   -1.1388   -1.7678 C   0  0  0  0  0  0  0  0  0  0  0  0
   -6.0735   -2.3610   -2.3542 C   0  0  0  0  0  0  0  0  0  0  0  0
   -8.1498   -4.7939   -2.4424 H   0  0  0  0  0  0  0  0  0  0  0  0
  1  2  1  0
  2  3  1  0
  3  4  2  0
  4  5  1  0
  5  6  1  0
  6  7  1  0
  7 13  1  0
 13 14  2  0
 14 15  1  0
 15 16  2  0
 16 17  1  0
 16 18  1  0
 18 19  2  0
  7  8  1  0
  8  9  1  0
  9 10  1  0
  8 11  1  0
 11 20  1  0
 20 21  1  0
 21 22  2  0
 22 23  1  0
 23 24  1  0
 24 25  2  0
 25 26  1  0
 26 27  2  0
 27 28  1  0
 28 29  2  0
 10  2  1  0
 29 21  1  0
 11  4  1  0
 29 24  1  0
 19 13  1  0
  2 12  1  0
 23 30  1  0
M  CHG 1   2   1
M  END
> <input_smiles>
CN1CCN(C2CC3=CNC4=CC=CC=C34)C(CCC2=C1)c5ccc(Cl)cc5

> <prot_variant_index>
1

> <minimizedAffinity>
0.00000

> <CNNscore>
0.6794753075

> <CNNaffinity>
4.3153319359

> <CNN_VS>
2.9321615696

> <CNNaffinity_variance>
1.1107485294

$$$$
LSD__p1


 30 34  0  0  0  0  0  0  0  0999 V2000
    0.5991    3.9605   -2.7783 C   0  0  0  0  0  0  0  0  0  0  0  0
    0.4488    3.1924   -1.4922 N   0  0  0  0  0  0  0  0  0  0  0  0
    0.9795    1.8624   -1.6328 C   0  0  0  0  0  0  0  0  0  0  0  0
    1.0568    1.0980   -0.5275 C   0  0  0  0  0  0  0  0  0  0  0  0
    1.1642   -0.3997   -0.6144 C   0  0  0  0  0  0  0  0  0  0  0  0
    0.1275   -1.0941    0.2943 C   0  0  0  0  0  0  0  0  0  0  0  0
   -1.0862   -0.2245    0.7752 C   0  0  0  0  0  0  0  0  0  0  0  0
   -0.8326    1.2532    0.8023 N   0  0  0  0  0  0  0  0  0  0  0  0
   -1.5637    1.9180   -0.3223 C   0  0  0  0  0  0  0  0  0  0  0  0
   -1.0056    3.2367   -0.9539 C   0  0  0  0  0  0  0  0  0  0  0  0
    0.5984    1.5943    0.8224 C   0  0  0  0  0  0  0  0  0  0  0  0
    1.0272    3.7071   -0.8127 H   0  0  0  0  0  0  0  0  0  0  0  0
   -1.6934   -0.7333    2.0905 C   0  0  0  0  0  0  0  0  0  0  0  0
   -2.4133    0.1389    2.9294 C   0  0  0  0  0  0  0  0  0  0  0  0
   -2.9468   -0.3008    4.1458 C   0  0  0  0  0  0  0  0  0  0  0  0
   -2.7536   -1.6165    4.5526 C   0  0  0  0  0  0  0  0  0  0  0  0
   -3.4222   -2.1618    6.0392 Cl  0  0  0  0  0  0  0  0  0  0  0  0
   -2.0203   -2.4907    3.7597 C   0  0  0  0  0  0  0  0  0  0  0  0
   -1.4897   -2.0498    2.5428 C   0  0  0  0  0  0  0  0  0  0  0  0
    1.4740    1.1548    2.0326 C   0  0  0  0  0  0  0  0  0  0  0  0
    0.8719    1.4662    3.3759 C   0  0  0  0  0  0  0  0  0  0  0  0
    0.3922    2.6891    3.8112 C   0  0  0  0  0  0  0  0  0  0  0  0
   -0.0477    2.5474    5.1014 N   0  0  0  0  0  0  0  0  0  0  0  0
    0.1550    1.2598    5.5343 C   0  0  0  0  0  0  0  0  0  0  0  0
   -0.1288    0.6739    6.7739 C   0  0  0  0  0  0  0  0  0  0  0  0
    0.2082   -0.6708    6.9486 C   0  0  0  0  0  0  0  0  0  0  0  0
    0.8125   -1.3950    5.9258 C   0  0  0  0  0  0  0  0  0  0  0  0
    1.0916   -0.7914    4.6941 C   0  0  0  0  0  0  0  0  0  0  0  0
    0.7477    0.5606    4.4831 C   0  0  0  0  0  0  0  0  0  0  0  0
   -0.4413    3.2819    5.6738 H   0  0  0  0  0  0  0  0  0  0  0  0
  1  2  1  0
  2  3  1  0
  3  4  2  0
  4  5  1  0
  5  6  1  0
  6  7  1  0
  7 13  1  0
 13 14  2  0
 14 15  1  0
 15 16  2  0
 16 17  1  0
 16 18  1  0
 18 19  2  0
  7  8  1  0
  8  9  1  0
  9 10  1  0
  8 11  1  0
 11 20  1  0
 20 21  1  0
 21 22  2  0
 22 23  1  0
 23 24  1  0
 24 25  2  0
 25 26  1  0
 26 27  2  0
 27 28  1  0
 28 29  2  0
 10  2  1  0
 29 21  1  0
 11  4  1  0
 29 24  1  0
 19 13  1  0
  2 12  1  0
 23 30  1  0
M  CHG 1   2   1
M  END
> <input_smiles>
CN1CCN(C2CC3=CNC4=CC=CC=C34)C(CCC2=C1)c5ccc(Cl)cc5

> <prot_variant_index>
1

> <minimizedAffinity>
0.00000

> <CNNscore>
0.5885635614

> <CNNaffinity>
4.7404551506

> <CNN_VS>
2.7900590897

> <CNNaffinity_variance>
1.1498515606

$$$$
LSD__p1


 30 34  0  0  0  0  0  0  0  0999 V2000
    0.0345    4.3053   -5.5133 C   0  0  0  0  0  0  0  0  0  0  0  0
   -0.4134    3.5539   -4.2880 N   0  0  0  0  0  0  0  0  0  0  0  0
    0.0743    2.2005   -4.3186 C   0  0  0  0  0  0  0  0  0  0  0  0
   -0.1136    1.4413   -3.2231 C   0  0  0  0  0  0  0  0  0  0  0  0
   -0.0582   -0.0603   -3.2893 C   0  0  0  0  0  0  0  0  0  0  0  0
   -1.2910   -0.7013   -2.6169 C   0  0  0  0  0  0  0  0  0  0  0  0
   -2.5375    0.2250   -2.3960 C   0  0  0  0  0  0  0  0  0  0  0  0
   -2.2285    1.6900   -2.3134 N   0  0  0  0  0  0  0  0  0  0  0  0
   -2.6800    2.3789   -3.5636 C   0  0  0  0  0  0  0  0  0  0  0  0
   -1.9443    3.6668   -4.0627 C   0  0  0  0  0  0  0  0  0  0  0  0
   -0.8189    1.9671   -1.9963 C   0  0  0  0  0  0  0  0  0  0  0  0
    0.0343    4.0470   -3.5022 H   0  0  0  0  0  0  0  0  0  0  0  0
   -3.4263   -0.2469   -1.2362 C   0  0  0  0  0  0  0  0  0  0  0  0
   -3.4322   -1.5997   -0.8456 C   0  0  0  0  0  0  0  0  0  0  0  0
   -4.2587   -2.0521    0.1888 C   0  0  0  0  0  0  0  0  0  0  0  0
   -5.1072   -1.1620    0.8382 C   0  0  0  0  0  0  0  0  0  0  0  0
   -6.1113   -1.7135    2.1196 Cl  0  0  0  0  0  0  0  0  0  0  0  0
   -5.1452    0.1723    0.4522 C   0  0  0  0  0  0  0  0  0  0  0  0
   -4.3164    0.6231   -0.5806 C   0  0  0  0  0  0  0  0  0  0  0  0
   -0.2337    1.4975   -0.6320 C   0  0  0  0  0  0  0  0  0  0  0  0
   -1.1078    1.8048    0.5535 C   0  0  0  0  0  0  0  0  0  0  0  0
   -1.6181    3.0393    0.9153 C   0  0  0  0  0  0  0  0  0  0  0  0
   -2.3427    2.8873    2.0686 N   0  0  0  0  0  0  0  0  0  0  0  0
   -2.3000    1.5803    2.4883 C   0  0  0  0  0  0  0  0  0  0  0  0
   -2.8811    0.9780    3.6109 C   0  0  0  0  0  0  0  0  0  0  0  0
   -2.6522   -0.3862    3.8070 C   0  0  0  0  0  0  0  0  0  0  0  0
   -1.8664   -1.1141    2.9191 C   0  0  0  0  0  0  0  0  0  0  0  0
   -1.2909   -0.4942    1.8037 C   0  0  0  0  0  0  0  0  0  0  0  0
   -1.5180    0.8787    1.5710 C   0  0  0  0  0  0  0  0  0  0  0  0
   -2.8218    3.6263    2.5652 H   0  0  0  0  0  0  0  0  0  0  0  0
  1  2  1  0
  2  3  1  0
  3  4  2  0
  4  5  1  0
  5  6  1  0
  6  7  1  0
  7 13  1  0
 13 14  2  0
 14 15  1  0
 15 16  2  0
 16 17  1  0
 16 18  1  0
 18 19  2  0
  7  8  1  0
  8  9  1  0
  9 10  1  0
  8 11  1  0
 11 20  1  0
 20 21  1  0
 21 22  2  0
 22 23  1  0
 23 24  1  0
 24 25  2  0
 25 26  1  0
 26 27  2  0
 27 28  1  0
 28 29  2  0
 10  2  1  0
 29 21  1  0
 11  4  1  0
 29 24  1  0
 19 13  1  0
  2 12  1  0
 23 30  1  0
M  CHG 1   2   1
M  END
> <input_smiles>
CN1CCN(C2CC3=CNC4=CC=CC=C34)C(CCC2=C1)c5ccc(Cl)cc5

> <prot_variant_index>
1

> <minimizedAffinity>
0.00000

> <CNNscore>
0.5880957246

> <CNNaffinity>
4.7682819366

> <CNN_VS>
2.8042061329

> <CNNaffinity_variance>
1.1218713522

$$$$
LSD__p1


 30 34  0  0  0  0  0  0  0  0999 V2000
   -4.7680    0.8673    2.2930 C   0  0  0  0  0  0  0  0  0  0  0  0
   -3.2720    0.8483    2.4612 N   0  0  0  0  0  0  0  0  0  0  0  0
   -2.8277   -0.4522    2.8878 C   0  0  0  0  0  0  0  0  0  0  0  0
   -1.5015   -0.6762    2.9390 C   0  0  0  0  0  0  0  0  0  0  0  0
   -0.9250   -1.7936    3.7646 C   0  0  0  0  0  0  0  0  0  0  0  0
    0.2214   -1.2940    4.6695 C   0  0  0  0  0  0  0  0  0  0  0  0
    0.3017    0.2523    4.9203 C   0  0  0  0  0  0  0  0  0  0  0  0
   -0.3285    1.0982    3.8544 N   0  0  0  0  0  0  0  0  0  0  0  0
   -1.6125    1.6814    4.3572 C   0  0  0  0  0  0  0  0  0  0  0  0
   -2.7720    2.0105    3.3592 C   0  0  0  0  0  0  0  0  0  0  0  0
   -0.4953    0.3892    2.5762 C   0  0  0  0  0  0  0  0  0  0  0  0
   -2.9017    1.0288    1.5171 H   0  0  0  0  0  0  0  0  0  0  0  0
    1.7214    0.7215    5.2695 C   0  0  0  0  0  0  0  0  0  0  0  0
    2.0593    2.0867    5.2022 C   0  0  0  0  0  0  0  0  0  0  0  0
    3.3562    2.5276    5.4874 C   0  0  0  0  0  0  0  0  0  0  0  0
    4.3423    1.6079    5.8274 C   0  0  0  0  0  0  0  0  0  0  0  0
    5.9317    2.1501    6.1935 Cl  0  0  0  0  0  0  0  0  0  0  0  0
    4.0449    0.2512    5.8708 C   0  0  0  0  0  0  0  0  0  0  0  0
    2.7471   -0.1873    5.5876 C   0  0  0  0  0  0  0  0  0  0  0  0
    0.7630   -0.1095    1.8066 C   0  0  0  0  0  0  0  0  0  0  0  0
    1.8811    0.8948    1.7344 C   0  0  0  0  0  0  0  0  0  0  0  0
    3.2185    0.6750    2.0137 C   0  0  0  0  0  0  0  0  0  0  0  0
    3.8952    1.8551    1.8481 N   0  0  0  0  0  0  0  0  0  0  0  0
    3.0257    2.8555    1.4883 C   0  0  0  0  0  0  0  0  0  0  0  0
    3.2719    4.2093    1.2288 C   0  0  0  0  0  0  0  0  0  0  0  0
    2.1798    5.0162    0.9000 C   0  0  0  0  0  0  0  0  0  0  0  0
    0.8933    4.4893    0.8423 C   0  0  0  0  0  0  0  0  0  0  0  0
    0.6659    3.1339    1.1082 C   0  0  0  0  0  0  0  0  0  0  0  0
    1.7517    2.2912    1.4269 C   0  0  0  0  0  0  0  0  0  0  0  0
    4.8865    1.9914    1.9930 H   0  0  0  0  0  0  0  0  0  0  0  0
  1  2  1  0
  2  3  1  0
  3  4  2  0
  4  5  1  0
  5  6  1  0
  6  7  1  0
  7 13  1  0
 13 14  2  0
 14 15  1  0
 15 16  2  0
 16 17  1  0
 16 18  1  0
 18 19  2  0
  7  8  1  0
  8  9  1  0
  9 10  1  0
  8 11  1  0
 11 20  1  0
 20 21  1  0
 21 22  2  0
 22 23  1  0
 23 24  1  0
 24 25  2  0
 25 26  1  0
 26 27  2  0
 27 28  1  0
 28 29  2  0
 10  2  1  0
 29 21  1  0
 11  4  1  0
 29 24  1  0
 19 13  1  0
  2 12  1  0
 23 30  1  0
M  CHG 1   2   1
M  END
> <input_smiles>
CN1CCN(C2CC3=CNC4=CC=CC=C34)C(CCC2=C1)c5ccc(Cl)cc5

> <prot_variant_index>
1

> <minimizedAffinity>
0.00000

> <CNNscore>
0.5800611973

> <CNNaffinity>
4.6419482231

> <CNN_VS>
2.6926140785

> <CNNaffinity_variance>
1.4793993235

$$$$
LSD__p1


 30 34  0  0  0  0  0  0  0  0999 V2000
   -2.9477    0.9437   -0.5788 C   0  0  0  0  0  0  0  0  0  0  0  0
   -1.5678    1.3144   -0.1042 N   0  0  0  0  0  0  0  0  0  0  0  0
   -0.8680    0.1513    0.3733 C   0  0  0  0  0  0  0  0  0  0  0  0
    0.4322    0.2890    0.6931 C   0  0  0  0  0  0  0  0  0  0  0  0
    1.1282   -0.6952    1.5927 C   0  0  0  0  0  0  0  0  0  0  0  0
    1.8922    0.0192    2.7278 C   0  0  0  0  0  0  0  0  0  0  0  0
    1.4865    1.5045    3.0276 C   0  0  0  0  0  0  0  0  0  0  0  0
    0.8622    2.2332    1.8752 N   0  0  0  0  0  0  0  0  0  0  0  0
   -0.6054    2.4066    2.1148 C   0  0  0  0  0  0  0  0  0  0  0  0
   -1.5959    2.4914    0.9062 C   0  0  0  0  0  0  0  0  0  0  0  0
    1.1500    1.6116    0.5733 C   0  0  0  0  0  0  0  0  0  0  0  0
   -1.0883    1.6640   -0.9462 H   0  0  0  0  0  0  0  0  0  0  0  0
    2.6231    2.3084    3.6754 C   0  0  0  0  0  0  0  0  0  0  0  0
    2.6597    3.7115    3.5629 C   0  0  0  0  0  0  0  0  0  0  0  0
    3.7043    4.4566    4.1208 C   0  0  0  0  0  0  0  0  0  0  0  0
    4.7401    3.8090    4.7854 C   0  0  0  0  0  0  0  0  0  0  0  0
    6.0156    4.7246    5.4849 Cl  0  0  0  0  0  0  0  0  0  0  0  0
    4.7461    2.4230    4.8841 C   0  0  0  0  0  0  0  0  0  0  0  0
    3.6996    1.6801    4.3277 C   0  0  0  0  0  0  0  0  0  0  0  0
    2.6214    1.5341    0.0696 C   0  0  0  0  0  0  0  0  0  0  0  0
    3.3804    2.8287    0.1786 C   0  0  0  0  0  0  0  0  0  0  0  0
    2.9892    4.0672   -0.2992 C   0  0  0  0  0  0  0  0  0  0  0  0
    3.9766    4.9734   -0.0130 N   0  0  0  0  0  0  0  0  0  0  0  0
    5.0230    4.3515    0.6232 C   0  0  0  0  0  0  0  0  0  0  0  0
    6.2348    4.8796    1.0853 C   0  0  0  0  0  0  0  0  0  0  0  0
    7.1396    3.9997    1.6847 C   0  0  0  0  0  0  0  0  0  0  0  0
    6.8451    2.6455    1.8077 C   0  0  0  0  0  0  0  0  0  0  0  0
    5.6297    2.1350    1.3368 C   0  0  0  0  0  0  0  0  0  0  0  0
    4.6896    3.0025    0.7417 C   0  0  0  0  0  0  0  0  0  0  0  0
    3.9631    5.9553   -0.2536 H   0  0  0  0  0  0  0  0  0  0  0  0
  1  2  1  0
  2  3  1  0
  3  4  2  0
  4  5  1  0
  5  6  1  0
  6  7  1  0
  7 13  1  0
 13 14  2  0
 14 15  1  0
 15 16  2  0
 16 17  1  0
 16 18  1  0
 18 19  2  0
  7  8  1  0
  8  9  1  0
  9 10  1  0
  8 11  1  0
 11 20  1  0
 20 21  1  0
 21 22  2  0
 22 23  1  0
 23 24  1  0
 24 25  2  0
 25 26  1  0
 26 27  2  0
 27 28  1  0
 28 29  2  0
 10  2  1  0
 29 21  1  0
 11  4  1  0
 29 24  1  0
 19 13  1  0
  2 12  1  0
 23 30  1  0
M  CHG 1   2   1
M  END
> <input_smiles>
CN1CCN(C2CC3=CNC4=CC=CC=C34)C(CCC2=C1)c5ccc(Cl)cc5

> <prot_variant_index>
1

> <minimizedAffinity>
0.00000

> <CNNscore>
0.5609444380

> <CNNaffinity>
4.8627991676

> <CNN_VS>
2.7277600765

> <CNNaffinity_variance>
1.1710939407

$$$$
LSD__p1


 30 34  0  0  0  0  0  0  0  0999 V2000
    0.7511    4.4580   -4.5902 C   0  0  0  0  0  0  0  0  0  0  0  0
    0.4835    3.9772   -3.1888 N   0  0  0  0  0  0  0  0  0  0  0  0
    1.0523    2.6713   -2.9852 C   0  0  0  0  0  0  0  0  0  0  0  0
    1.0297    2.1650   -1.7382 C   0  0  0  0  0  0  0  0  0  0  0  0
    1.1754    0.6891   -1.4871 C   0  0  0  0  0  0  0  0  0  0  0  0
    0.0640    0.1623   -0.5544 C   0  0  0  0  0  0  0  0  0  0  0  0
   -1.2102    1.0630   -0.3939 C   0  0  0  0  0  0  0  0  0  0  0  0
   -0.9903    2.5216   -0.6636 N   0  0  0  0  0  0  0  0  0  0  0  0
   -1.6138    2.8993   -1.9713 C   0  0  0  0  0  0  0  0  0  0  0  0
   -1.0196    4.0745   -2.8167 C   0  0  0  0  0  0  0  0  0  0  0  0
    0.4237    2.9188   -0.5792 C   0  0  0  0  0  0  0  0  0  0  0  0
    0.9778    4.6490   -2.5844 H   0  0  0  0  0  0  0  0  0  0  0  0
   -1.9404    0.8223    0.9353 C   0  0  0  0  0  0  0  0  0  0  0  0
   -2.7605    1.8229    1.4910 C   0  0  0  0  0  0  0  0  0  0  0  0
   -3.4086    1.6316    2.7162 C   0  0  0  0  0  0  0  0  0  0  0  0
   -3.2327    0.4425    3.4155 C   0  0  0  0  0  0  0  0  0  0  0  0
   -4.0410    0.2002    4.9130 Cl  0  0  0  0  0  0  0  0  0  0  0  0
   -2.4038   -0.5496    2.9061 C   0  0  0  0  0  0  0  0  0  0  0  0
   -1.7587   -0.3573    1.6799 C   0  0  0  0  0  0  0  0  0  0  0  0
    1.1776    2.7854    0.7767 C   0  0  0  0  0  0  0  0  0  0  0  0
    0.4333    3.3516    1.9554 C   0  0  0  0  0  0  0  0  0  0  0  0
   -0.1132    4.6182    2.0661 C   0  0  0  0  0  0  0  0  0  0  0  0
   -0.6817    4.7376    3.3073 N   0  0  0  0  0  0  0  0  0  0  0  0
   -0.4995    3.5822    4.0270 C   0  0  0  0  0  0  0  0  0  0  0  0
   -0.8988    3.2637    5.3308 C   0  0  0  0  0  0  0  0  0  0  0  0
   -0.5551    2.0029    5.8252 C   0  0  0  0  0  0  0  0  0  0  0  0
    0.1663    1.1025    5.0476 C   0  0  0  0  0  0  0  0  0  0  0  0
    0.5598    1.4397    3.7472 C   0  0  0  0  0  0  0  0  0  0  0  0
    0.2128    2.6996    3.2153 C   0  0  0  0  0  0  0  0  0  0  0  0
   -1.1471    5.5606    3.6656 H   0  0  0  0  0  0  0  0  0  0  0  0
  1  2  1  0
  2  3  1  0
  3  4  2  0
  4  5  1  0
  5  6  1  0
  6  7  1  0
  7 13  1  0
 13 14  2  0
 14 15  1  0
 15 16  2  0
 16 17  1  0
 16 18  1  0
 18 19  2  0
  7  8  1  0
  8  9  1  0
  9 10  1  0
  8 11  1  0
 11 20  1  0
 20 21  1  0
 21 22  2  0
 22 23  1  0
 23 24  1  0
 24 25  2  0
 25 26  1  0
 26 27  2  0
 27 28  1  0
 28 29  2  0
 10  2  1  0
 29 21  1  0
 11  4  1  0
 29 24  1  0
 19 13  1  0
  2 12  1  0
 23 30  1  0
M  CHG 1   2   1
M  END
> <input_smiles>
CN1CCN(C2CC3=CNC4=CC=CC=C34)C(CCC2=C1)c5ccc(Cl)cc5

> <prot_variant_index>
1

> <minimizedAffinity>
0.00000

> <CNNscore>
0.5478454232

> <CNNaffinity>
4.6836910248

> <CNN_VS>
2.5659387112

> <CNNaffinity_variance>
1.2727823257

$$$$
LSD__p1


 30 34  0  0  0  0  0  0  0  0999 V2000
   -2.7573    5.4027   -4.8224 C   0  0  0  0  0  0  0  0  0  0  0  0
   -2.7184    4.6944   -3.4945 N   0  0  0  0  0  0  0  0  0  0  0  0
   -2.2195    3.3539   -3.6510 C   0  0  0  0  0  0  0  0  0  0  0  0
   -1.9823    2.6388   -2.5355 C   0  0  0  0  0  0  0  0  0  0  0  0
   -1.8947    1.1376   -2.5689 C   0  0  0  0  0  0  0  0  0  0  0  0
   -2.7882    0.4954   -1.4863 C   0  0  0  0  0  0  0  0  0  0  0  0
   -3.9140    1.3983   -0.8716 C   0  0  0  0  0  0  0  0  0  0  0  0
   -3.6534    2.8730   -0.9497 N   0  0  0  0  0  0  0  0  0  0  0  0
   -4.5404    3.4947   -1.9832 C   0  0  0  0  0  0  0  0  0  0  0  0
   -4.0769    4.7779   -2.7498 C   0  0  0  0  0  0  0  0  0  0  0  0
   -2.2340    3.1996   -1.1568 C   0  0  0  0  0  0  0  0  0  0  0  0
   -2.0438    5.2327   -2.9321 H   0  0  0  0  0  0  0  0  0  0  0  0
   -4.3217    0.9551    0.5408 C   0  0  0  0  0  0  0  0  0  0  0  0
   -4.1374   -0.3790    0.9518 C   0  0  0  0  0  0  0  0  0  0  0  0
   -4.5314   -0.8066    2.2244 C   0  0  0  0  0  0  0  0  0  0  0  0
   -5.1334    0.0891    3.1015 C   0  0  0  0  0  0  0  0  0  0  0  0
   -5.6033   -0.4314    4.6708 Cl  0  0  0  0  0  0  0  0  0  0  0  0
   -5.3565    1.4038    2.7109 C   0  0  0  0  0  0  0  0  0  0  0  0
   -4.9597    1.8299    1.4390 C   0  0  0  0  0  0  0  0  0  0  0  0
   -1.1905    2.8053   -0.0704 C   0  0  0  0  0  0  0  0  0  0  0  0
   -1.6059    3.1421    1.3360 C   0  0  0  0  0  0  0  0  0  0  0  0
   -2.0051    4.3780    1.8139 C   0  0  0  0  0  0  0  0  0  0  0  0
   -2.2738    4.2585    3.1524 N   0  0  0  0  0  0  0  0  0  0  0  0
   -2.0361    2.9727    3.5723 C   0  0  0  0  0  0  0  0  0  0  0  0
   -2.1637    2.4057    4.8463 C   0  0  0  0  0  0  0  0  0  0  0  0
   -1.8276    1.0576    4.9933 C   0  0  0  0  0  0  0  0  0  0  0  0
   -1.3744    0.3115    3.9099 C   0  0  0  0  0  0  0  0  0  0  0  0
   -1.2502    0.8962    2.6442 C   0  0  0  0  0  0  0  0  0  0  0  0
   -1.5977    2.2514    2.4619 C   0  0  0  0  0  0  0  0  0  0  0  0
   -2.5773    5.0062    3.7616 H   0  0  0  0  0  0  0  0  0  0  0  0
  1  2  1  0
  2  3  1  0
  3  4  2  0
  4  5  1  0
  5  6  1  0
  6  7  1  0
  7 13  1  0
 13 14  2  0
 14 15  1  0
 15 16  2  0
 16 17  1  0
 16 18  1  0
 18 19  2  0
  7  8  1  0
  8  9  1  0
  9 10  1  0
  8 11  1  0
 11 20  1  0
 20 21  1  0
 21 22  2  0
 22 23  1  0
 23 24  1  0
 24 25  2  0
 25 26  1  0
 26 27  2  0
 27 28  1  0
 28 29  2  0
 10  2  1  0
 29 21  1  0
 11  4  1  0
 29 24  1  0
 19 13  1  0
  2 12  1  0
 23 30  1  0
M  CHG 1   2   1
M  END
> <input_smiles>
CN1CCN(C2CC3=CNC4=CC=CC=C34)C(CCC2=C1)c5ccc(Cl)cc5

> <prot_variant_index>
1

> <minimizedAffinity>
0.00000

> <CNNscore>
0.5353283286

> <CNNaffinity>
4.7628917694

> <CNN_VS>
2.5497109890

> <CNNaffinity_variance>
1.0137530565

$$$$
LSD__p1


 30 34  0  0  0  0  0  0  0  0999 V2000
   -2.9691   -1.2067   -0.0074 C   0  0  0  0  0  0  0  0  0  0  0  0
   -1.5692   -0.9386    0.4773 N   0  0  0  0  0  0  0  0  0  0  0  0
   -1.0494   -2.0824    1.1788 C   0  0  0  0  0  0  0  0  0  0  0  0
    0.2456   -2.0581    1.5450 C   0  0  0  0  0  0  0  0  0  0  0  0
    0.7711   -2.9546    2.6325 C   0  0  0  0  0  0  0  0  0  0  0  0
    1.5846   -2.1597    3.6761 C   0  0  0  0  0  0  0  0  0  0  0  0
    1.3724   -0.6058    3.7037 C   0  0  0  0  0  0  0  0  0  0  0  0
    0.8923   -0.0112    2.4134 N   0  0  0  0  0  0  0  0  0  0  0  0
   -0.5461    0.3853    2.5373 C   0  0  0  0  0  0  0  0  0  0  0  0
   -1.4736    0.3875    1.2768 C   0  0  0  0  0  0  0  0  0  0  0  0
    1.1387   -0.8774    1.2501 C   0  0  0  0  0  0  0  0  0  0  0  0
   -1.0181   -0.8016   -0.3821 H   0  0  0  0  0  0  0  0  0  0  0  0
    2.5837    0.1461    4.2738 C   0  0  0  0  0  0  0  0  0  0  0  0
    2.8127    1.4933    3.9342 C   0  0  0  0  0  0  0  0  0  0  0  0
    3.9282    2.1840    4.4203 C   0  0  0  0  0  0  0  0  0  0  0  0
    4.8437    1.5333    5.2402 C   0  0  0  0  0  0  0  0  0  0  0  0
    6.2058    2.3856    5.8508 Cl  0  0  0  0  0  0  0  0  0  0  0  0
    4.6597    0.1951    5.5658 C   0  0  0  0  0  0  0  0  0  0  0  0
    3.5426   -0.4931    5.0807 C   0  0  0  0  0  0  0  0  0  0  0  0
    2.6028   -1.2258    0.8505 C   0  0  0  0  0  0  0  0  0  0  0  0
    3.5250   -0.0385    0.7878 C   0  0  0  0  0  0  0  0  0  0  0  0
    3.3209    1.1396    0.0911 C   0  0  0  0  0  0  0  0  0  0  0  0
    4.4108    1.9487    0.2799 N   0  0  0  0  0  0  0  0  0  0  0  0
    5.3413    1.3170    1.0682 C   0  0  0  0  0  0  0  0  0  0  0  0
    6.5963    1.7581    1.5052 C   0  0  0  0  0  0  0  0  0  0  0  0
    7.3531    0.8859    2.2918 C   0  0  0  0  0  0  0  0  0  0  0  0
    6.8749   -0.3789    2.6192 C   0  0  0  0  0  0  0  0  0  0  0  0
    5.6189   -0.8040    2.1705 C   0  0  0  0  0  0  0  0  0  0  0  0
    4.8253    0.0613    1.3882 C   0  0  0  0  0  0  0  0  0  0  0  0
    4.5380    2.8688   -0.1195 H   0  0  0  0  0  0  0  0  0  0  0  0
  1  2  1  0
  2  3  1  0
  3  4  2  0
  4  5  1  0
  5  6  1  0
  6  7  1  0
  7 13  1  0
 13 14  2  0
 14 15  1  0
 15 16  2  0
 16 17  1  0
 16 18  1  0
 18 19  2  0
  7  8  1  0
  8  9  1  0
  9 10  1  0
  8 11  1  0
 11 20  1  0
 20 21  1  0
 21 22  2  0
 22 23  1  0
 23 24  1  0
 24 25  2  0
 25 26  1  0
 26 27  2  0
 27 28  1  0
 28 29  2  0
 10  2  1  0
 29 21  1  0
 11  4  1  0
 29 24  1  0
 19 13  1  0
  2 12  1  0
 23 30  1  0
M  CHG 1   2   1
M  END
> <input_smiles>
CN1CCN(C2CC3=CNC4=CC=CC=C34)C(CCC2=C1)c5ccc(Cl)cc5

> <prot_variant_index>
1

> <minimizedAffinity>
0.00000

> <CNNscore>
0.5164393187

> <CNNaffinity>
4.7841582298

> <CNN_VS>
2.4707274437

> <CNNaffinity_variance>
1.2277021408

$$$$
LSD__p1


 30 34  0  0  0  0  0  0  0  0999 V2000
   -2.2923    2.8150   -3.8723 C   0  0  0  0  0  0  0  0  0  0  0  0
   -2.5627    2.3013   -2.4831 N   0  0  0  0  0  0  0  0  0  0  0  0
   -2.5285    0.8630   -2.4605 C   0  0  0  0  0  0  0  0  0  0  0  0
   -2.6027    0.2527   -1.2630 C   0  0  0  0  0  0  0  0  0  0  0  0
   -3.0159   -1.1883   -1.1403 C   0  0  0  0  0  0  0  0  0  0  0  0
   -4.1292   -1.3690   -0.0864 C   0  0  0  0  0  0  0  0  0  0  0  0
   -4.9238   -0.0824    0.3304 C   0  0  0  0  0  0  0  0  0  0  0  0
   -4.1854    1.2076    0.1318 N   0  0  0  0  0  0  0  0  0  0  0  0
   -4.7586    1.9503   -1.0349 C   0  0  0  0  0  0  0  0  0  0  0  0
   -3.8551    2.9102   -1.8782 C   0  0  0  0  0  0  0  0  0  0  0  0
   -2.7289    1.0300    0.0248 C   0  0  0  0  0  0  0  0  0  0  0  0
   -1.7794    2.6577   -1.9169 H   0  0  0  0  0  0  0  0  0  0  0  0
   -5.5315   -0.1927    1.7362 C   0  0  0  0  0  0  0  0  0  0  0  0
   -5.8268    0.9662    2.4795 C   0  0  0  0  0  0  0  0  0  0  0  0
   -6.3522    0.8832    3.7737 C   0  0  0  0  0  0  0  0  0  0  0  0
   -6.5743   -0.3612    4.3534 C   0  0  0  0  0  0  0  0  0  0  0  0
   -7.2347   -0.4643    5.9370 Cl  0  0  0  0  0  0  0  0  0  0  0  0
   -6.2625   -1.5212    3.6550 C   0  0  0  0  0  0  0  0  0  0  0  0
   -5.7395   -1.4361    2.3604 C   0  0  0  0  0  0  0  0  0  0  0  0
   -1.9358    0.4567    1.2360 C   0  0  0  0  0  0  0  0  0  0  0  0
   -2.2594    1.1111    2.5516 C   0  0  0  0  0  0  0  0  0  0  0  0
   -2.2524    2.4661    2.8327 C   0  0  0  0  0  0  0  0  0  0  0  0
   -2.5823    2.6364    4.1519 N   0  0  0  0  0  0  0  0  0  0  0  0
   -2.7830    1.4180    4.7531 C   0  0  0  0  0  0  0  0  0  0  0  0
   -3.1217    1.1149    6.0775 C   0  0  0  0  0  0  0  0  0  0  0  0
   -3.2419   -0.2332    6.4244 C   0  0  0  0  0  0  0  0  0  0  0  0
   -3.0233   -1.2355    5.4845 C   0  0  0  0  0  0  0  0  0  0  0  0
   -2.6823   -0.9133    4.1656 C   0  0  0  0  0  0  0  0  0  0  0  0
   -2.5697    0.4397    3.7822 C   0  0  0  0  0  0  0  0  0  0  0  0
   -2.6455    3.5230    4.6338 H   0  0  0  0  0  0  0  0  0  0  0  0
  1  2  1  0
  2  3  1  0
  3  4  2  0
  4  5  1  0
  5  6  1  0
  6  7  1  0
  7 13  1  0
 13 14  2  0
 14 15  1  0
 15 16  2  0
 16 17  1  0
 16 18  1  0
 18 19  2  0
  7  8  1  0
  8  9  1  0
  9 10  1  0
  8 11  1  0
 11 20  1  0
 20 21  1  0
 21 22  2  0
 22 23  1  0
 23 24  1  0
 24 25  2  0
 25 26  1  0
 26 27  2  0
 27 28  1  0
 28 29  2  0
 10  2  1  0
 29 21  1  0
 11  4  1  0
 29 24  1  0
 19 13  1  0
  2 12  1  0
 23 30  1  0
M  CHG 1   2   1
M  END
> <input_smiles>
CN1CCN(C2CC3=CNC4=CC=CC=C34)C(CCC2=C1)c5ccc(Cl)cc5

> <prot_variant_index>
1

> <minimizedAffinity>
0.00000

> <CNNscore>
0.4970732927

> <CNNaffinity>
4.8785152435

> <CNN_VS>
2.4249796867

> <CNNaffinity_variance>
0.8008225560

$$$$
LSD__p2


 30 34  0  0  0  0  0  0  0  0999 V2000
   -7.1330    1.8477   -3.5164 C   0  0  0  0  0  0  0  0  0  0  0  0
   -6.1890    2.9062   -3.1231 N   0  0  0  0  0  0  0  0  0  0  0  0
   -6.3029    4.1728   -3.6746 C   0  0  0  0  0  0  0  0  0  0  0  0
   -5.6718    5.2556   -3.2027 C   0  0  0  0  0  0  0  0  0  0  0  0
   -5.1986    6.3554   -4.1058 C   0  0  0  0  0  0  0  0  0  0  0  0
   -3.7039    6.0605   -4.3809 C   0  0  0  0  0  0  0  0  0  0  0  0
   -2.8588    5.6887   -3.1150 C   0  0  0  0  0  0  0  0  0  0  0  0
   -3.6039    4.6648   -2.2199 N   0  0  0  0  0  0  0  0  0  0  0  0
   -3.6443    3.2471   -2.8293 C   0  0  0  0  0  0  0  0  0  0  0  0
   -4.9125    2.3904   -2.5429 C   0  0  0  0  0  0  0  0  0  0  0  0
   -4.9524    5.2697   -1.8923 C   0  0  0  0  0  0  0  0  0  0  0  0
   -3.0829    4.6040   -1.3408 H   0  0  0  0  0  0  0  0  0  0  0  0
   -1.4131    5.2731   -3.3488 C   0  0  0  0  0  0  0  0  0  0  0  0
   -0.8983    4.9695   -4.6204 C   0  0  0  0  0  0  0  0  0  0  0  0
    0.4325    4.5655   -4.7773 C   0  0  0  0  0  0  0  0  0  0  0  0
    1.2648    4.4566   -3.6674 C   0  0  0  0  0  0  0  0  0  0  0  0
    2.8958    3.9545   -3.8643 Cl  0  0  0  0  0  0  0  0  0  0  0  0
    0.7783    4.7537   -2.3986 C   0  0  0  0  0  0  0  0  0  0  0  0
   -0.5505    5.1605   -2.2396 C   0  0  0  0  0  0  0  0  0  0  0  0
   -5.6106    4.6706   -0.6216 C   0  0  0  0  0  0  0  0  0  0  0  0
   -4.6321    4.5967    0.5158 C   0  0  0  0  0  0  0  0  0  0  0  0
   -4.1471    3.4399    1.0948 C   0  0  0  0  0  0  0  0  0  0  0  0
   -3.2945    3.7903    2.1074 N   0  0  0  0  0  0  0  0  0  0  0  0
   -3.2259    5.1597    2.2160 C   0  0  0  0  0  0  0  0  0  0  0  0
   -2.4974    5.9526    3.1100 C   0  0  0  0  0  0  0  0  0  0  0  0
   -2.6025    7.3395    2.9792 C   0  0  0  0  0  0  0  0  0  0  0  0
   -3.4012    7.9080    1.9903 C   0  0  0  0  0  0  0  0  0  0  0  0
   -4.1245    7.1006    1.1034 C   0  0  0  0  0  0  0  0  0  0  0  0
   -4.0413    5.6968    1.2185 C   0  0  0  0  0  0  0  0  0  0  0  0
   -2.7853    3.1405    2.6944 H   0  0  0  0  0  0  0  0  0  0  0  0
  1  2  1  0
  2  3  1  0
  3  4  2  0
  4  5  1  0
  5  6  1  0
  6  7  1  0
  7 13  1  0
 13 14  2  0
 14 15  1  0
 15 16  2  0
 16 17  1  0
 16 18  1  0
 18 19  2  0
  7  8  1  0
  8  9  1  0
  9 10  1  0
  8 11  1  0
 11 20  1  0
 20 21  1  0
 21 22  2  0
 22 23  1  0
 23 24  1  0
 24 25  2  0
 25 26  1  0
 26 27  2  0
 27 28  1  0
 28 29  2  0
 10  2  1  0
 29 21  1  0
 11  4  1  0
 29 24  1  0
 19 13  1  0
  8 12  1  0
 23 30  1  0
M  CHG 1   8   1
M  END
> <input_smiles>
CN1CCN(C2CC3=CNC4=CC=CC=C34)C(CCC2=C1)c5ccc(Cl)cc5

> <prot_variant_index>
2

> <minimizedAffinity>
0.00000

> <CNNscore>
0.3085629344

> <CNNaffinity>
3.5237789154

> <CNN_VS>
1.0873075724

> <CNNaffinity_variance>
1.6040951014

$$$$
LSD__p2


 30 34  0  0  0  0  0  0  0  0999 V2000
   -2.9490    0.8439   -3.0845 C   0  0  0  0  0  0  0  0  0  0  0  0
   -2.1095   -0.1028   -2.3326 N   0  0  0  0  0  0  0  0  0  0  0  0
   -2.3425   -0.3103   -0.9820 C   0  0  0  0  0  0  0  0  0  0  0  0
   -1.8169   -1.3203   -0.2768 C   0  0  0  0  0  0  0  0  0  0  0  0
   -1.4497   -1.1721    1.1695 C   0  0  0  0  0  0  0  0  0  0  0  0
    0.0663   -0.8589    1.1891 C   0  0  0  0  0  0  0  0  0  0  0  0
    0.9424   -1.7701    0.2634 C   0  0  0  0  0  0  0  0  0  0  0  0
    0.2972   -1.9382   -1.1368 N   0  0  0  0  0  0  0  0  0  0  0  0
    0.3914   -0.6633   -2.0019 C   0  0  0  0  0  0  0  0  0  0  0  0
   -0.7901   -0.3810   -2.9759 C   0  0  0  0  0  0  0  0  0  0  0  0
   -1.1025   -2.4693   -0.9127 C   0  0  0  0  0  0  0  0  0  0  0  0
    0.8215   -2.6734   -1.6192 H   0  0  0  0  0  0  0  0  0  0  0  0
    2.4210   -1.4245    0.1555 C   0  0  0  0  0  0  0  0  0  0  0  0
    3.3613   -2.2628   -0.4670 C   0  0  0  0  0  0  0  0  0  0  0  0
    4.7149   -1.9104   -0.5150 C   0  0  0  0  0  0  0  0  0  0  0  0
    5.1473   -0.7192    0.0598 C   0  0  0  0  0  0  0  0  0  0  0  0
    6.8108   -0.2939    0.0036 Cl  0  0  0  0  0  0  0  0  0  0  0  0
    4.2348    0.1279    0.6799 C   0  0  0  0  0  0  0  0  0  0  0  0
    2.8811   -0.2206    0.7267 C   0  0  0  0  0  0  0  0  0  0  0  0
   -1.7014   -3.1859   -2.1514 C   0  0  0  0  0  0  0  0  0  0  0  0
   -2.9719   -3.9074   -1.8024 C   0  0  0  0  0  0  0  0  0  0  0  0
   -3.0646   -5.0937   -1.1004 C   0  0  0  0  0  0  0  0  0  0  0  0
   -4.3874   -5.4338   -1.0028 N   0  0  0  0  0  0  0  0  0  0  0  0
   -5.1651   -4.4995   -1.6464 C   0  0  0  0  0  0  0  0  0  0  0  0
   -6.5541   -4.4489   -1.8102 C   0  0  0  0  0  0  0  0  0  0  0  0
   -7.0851   -3.3582   -2.5029 C   0  0  0  0  0  0  0  0  0  0  0  0
   -6.2584   -2.3572   -3.0065 C   0  0  0  0  0  0  0  0  0  0  0  0
   -4.8700   -2.4226   -2.8345 C   0  0  0  0  0  0  0  0  0  0  0  0
   -4.3075   -3.5174   -2.1447 C   0  0  0  0  0  0  0  0  0  0  0  0
   -4.7472   -6.2525   -0.5272 H   0  0  0  0  0  0  0  0  0  0  0  0
  1  2  1  0
  2  3  1  0
  3  4  2  0
  4  5  1  0
  5  6  1  0
  6  7  1  0
  7 13  1  0
 13 14  2  0
 14 15  1  0
 15 16  2  0
 16 17  1  0
 16 18  1  0
 18 19  2  0
  7  8  1  0
  8  9  1  0
  9 10  1  0
  8 11  1  0
 11 20  1  0
 20 21  1  0
 21 22  2  0
 22 23  1  0
 23 24  1  0
 24 25  2  0
 25 26  1  0
 26 27  2  0
 27 28  1  0
 28 29  2  0
 10  2  1  0
 29 21  1  0
 11  4  1  0
 29 24  1  0
 19 13  1  0
  8 12  1  0
 23 30  1  0
M  CHG 1   8   1
M  END
> <input_smiles>
CN1CCN(C2CC3=CNC4=CC=CC=C34)C(CCC2=C1)c5ccc(Cl)cc5

> <prot_variant_index>
2

> <minimizedAffinity>
0.00000

> <CNNscore>
0.3018280566

> <CNNaffinity>
3.5148961544

> <CNN_VS>
1.0608942509

> <CNNaffinity_variance>
1.1171331406

$$$$
LSD__p2


 30 34  0  0  0  0  0  0  0  0999 V2000
   -2.9476    0.9601   -1.7381 C   0  0  0  0  0  0  0  0  0  0  0  0
   -2.2731    0.1047   -0.7483 N   0  0  0  0  0  0  0  0  0  0  0  0
   -2.6019    0.2106    0.5941 C   0  0  0  0  0  0  0  0  0  0  0  0
   -2.2437   -0.6815    1.5265 C   0  0  0  0  0  0  0  0  0  0  0  0
   -1.9388   -0.2760    2.9377 C   0  0  0  0  0  0  0  0  0  0  0  0
   -0.3989   -0.1344    3.0117 C   0  0  0  0  0  0  0  0  0  0  0  0
    0.4059   -1.3095    2.3591 C   0  0  0  0  0  0  0  0  0  0  0  0
   -0.1793   -1.6941    0.9754 N   0  0  0  0  0  0  0  0  0  0  0  0
    0.1180   -0.6462   -0.1183 C   0  0  0  0  0  0  0  0  0  0  0  0
   -0.9658   -0.4452   -1.2180 C   0  0  0  0  0  0  0  0  0  0  0  0
   -1.6440   -2.0094    1.1921 C   0  0  0  0  0  0  0  0  0  0  0  0
    0.2749   -2.5670    0.6928 H   0  0  0  0  0  0  0  0  0  0  0  0
    1.9195   -1.1589    2.2992 C   0  0  0  0  0  0  0  0  0  0  0  0
    2.5803    0.0547    2.5536 C   0  0  0  0  0  0  0  0  0  0  0  0
    3.9737    0.1460    2.4583 C   0  0  0  0  0  0  0  0  0  0  0  0
    4.7243   -0.9712    2.1051 C   0  0  0  0  0  0  0  0  0  0  0  0
    6.4337   -0.8526    1.9834 Cl  0  0  0  0  0  0  0  0  0  0  0  0
    4.0926   -2.1841    1.8504 C   0  0  0  0  0  0  0  0  0  0  0  0
    2.7006   -2.2786    1.9479 C   0  0  0  0  0  0  0  0  0  0  0  0
   -2.2599   -2.8985    0.0799 C   0  0  0  0  0  0  0  0  0  0  0  0
   -3.6196   -3.4006    0.4741 C   0  0  0  0  0  0  0  0  0  0  0  0
   -3.8798   -4.4185    1.3712 C   0  0  0  0  0  0  0  0  0  0  0  0
   -5.2364   -4.5895    1.4466 N   0  0  0  0  0  0  0  0  0  0  0  0
   -5.8718   -3.7128    0.5984 C   0  0  0  0  0  0  0  0  0  0  0  0
   -7.2373   -3.5437    0.3427 C   0  0  0  0  0  0  0  0  0  0  0  0
   -7.6076   -2.5499   -0.5667 C   0  0  0  0  0  0  0  0  0  0  0  0
   -6.6490   -1.7555   -1.1904 C   0  0  0  0  0  0  0  0  0  0  0  0
   -5.2861   -1.9375   -0.9240 C   0  0  0  0  0  0  0  0  0  0  0  0
   -4.8850   -2.9391   -0.0147 C   0  0  0  0  0  0  0  0  0  0  0  0
   -5.7091   -5.2617    2.0388 H   0  0  0  0  0  0  0  0  0  0  0  0
  1  2  1  0
  2  3  1  0
  3  4  2  0
  4  5  1  0
  5  6  1  0
  6  7  1  0
  7 13  1  0
 13 14  2  0
 14 15  1  0
 15 16  2  0
 16 17  1  0
 16 18  1  0
 18 19  2  0
  7  8  1  0
  8  9  1  0
  9 10  1  0
  8 11  1  0
 11 20  1  0
 20 21  1  0
 21 22  2  0
 22 23  1  0
 23 24  1  0
 24 25  2  0
 25 26  1  0
 26 27  2  0
 27 28  1  0
 28 29  2  0
 10  2  1  0
 29 21  1  0
 11  4  1  0
 29 24  1  0
 19 13  1  0
  8 12  1  0
 23 30  1  0
M  CHG 1   8   1
M  END
> <input_smiles>
CN1CCN(C2CC3=CNC4=CC=CC=C34)C(CCC2=C1)c5ccc(Cl)cc5

> <prot_variant_index>
2

> <minimizedAffinity>
0.00000

> <CNNscore>
0.3007924557

> <CNNaffinity>
3.4487226009

> <CNN_VS>
1.0373497009

> <CNNaffinity_variance>
1.1628147364

$$$$
LSD__p2


 30 34  0  0  0  0  0  0  0  0999 V2000
   -7.1330    1.8477   -3.5164 C   0  0  0  0  0  0  0  0  0  0  0  0
   -6.1890    2.9062   -3.1231 N   0  0  0  0  0  0  0  0  0  0  0  0
   -6.3029    4.1728   -3.6746 C   0  0  0  0  0  0  0  0  0  0  0  0
   -5.6718    5.2557   -3.2027 C   0  0  0  0  0  0  0  0  0  0  0  0
   -5.1986    6.3554   -4.1058 C   0  0  0  0  0  0  0  0  0  0  0  0
   -3.7039    6.0605   -4.3809 C   0  0  0  0  0  0  0  0  0  0  0  0
   -2.8588    5.6887   -3.1151 C   0  0  0  0  0  0  0  0  0  0  0  0
   -3.6039    4.6648   -2.2199 N   0  0  0  0  0  0  0  0  0  0  0  0
   -3.6443    3.2471   -2.8293 C   0  0  0  0  0  0  0  0  0  0  0  0
   -4.9125    2.3904   -2.5429 C   0  0  0  0  0  0  0  0  0  0  0  0
   -4.9524    5.2697   -1.8923 C   0  0  0  0  0  0  0  0  0  0  0  0
   -3.0829    4.6040   -1.3408 H   0  0  0  0  0  0  0  0  0  0  0  0
   -1.4132    5.2731   -3.3488 C   0  0  0  0  0  0  0  0  0  0  0  0
   -0.8993    4.9658   -4.6199 C   0  0  0  0  0  0  0  0  0  0  0  0
    0.4316    4.5620   -4.7768 C   0  0  0  0  0  0  0  0  0  0  0  0
    1.2649    4.4570   -3.6673 C   0  0  0  0  0  0  0  0  0  0  0  0
    2.8960    3.9551   -3.8641 Cl  0  0  0  0  0  0  0  0  0  0  0  0
    0.7794    4.7578   -2.3990 C   0  0  0  0  0  0  0  0  0  0  0  0
   -0.5494    5.1644   -2.2401 C   0  0  0  0  0  0  0  0  0  0  0  0
   -5.6105    4.6706   -0.6216 C   0  0  0  0  0  0  0  0  0  0  0  0
   -6.8004    5.4801   -0.1908 C   0  0  0  0  0  0  0  0  0  0  0  0
   -6.7603    6.6990    0.4582 C   0  0  0  0  0  0  0  0  0  0  0  0
   -8.0471    7.1038    0.6935 N   0  0  0  0  0  0  0  0  0  0  0  0
   -8.9329    6.1609    0.2265 C   0  0  0  0  0  0  0  0  0  0  0  0
  -10.3318    6.1493    0.2634 C   0  0  0  0  0  0  0  0  0  0  0  0
  -10.9857    5.0566   -0.3110 C   0  0  0  0  0  0  0  0  0  0  0  0
  -10.2671    4.0206   -0.9021 C   0  0  0  0  0  0  0  0  0  0  0  0
   -8.8670    4.0469   -0.9306 C   0  0  0  0  0  0  0  0  0  0  0  0
   -8.1820    5.1358   -0.3511 C   0  0  0  0  0  0  0  0  0  0  0  0
   -8.3143    7.9703    1.1450 H   0  0  0  0  0  0  0  0  0  0  0  0
  1  2  1  0
  2  3  1  0
  3  4  2  0
  4  5  1  0
  5  6  1  0
  6  7  1  0
  7 13  1  0
 13 14  2  0
 14 15  1  0
 15 16  2  0
 16 17  1  0
 16 18  1  0
 18 19  2  0
  7  8  1  0
  8  9  1  0
  9 10  1  0
  8 11  1  0
 11 20  1  0
 20 21  1  0
 21 22  2  0
 22 23  1  0
 23 24  1  0
 24 25  2  0
 25 26  1  0
 26 27  2  0
 27 28  1  0
 28 29  2  0
 10  2  1  0
 29 21  1  0
 11  4  1  0
 29 24  1  0
 19 13  1  0
  8 12  1  0
 23 30  1  0
M  CHG 1   8   1
M  END
> <input_smiles>
CN1CCN(C2CC3=CNC4=CC=CC=C34)C(CCC2=C1)c5ccc(Cl)cc5

> <prot_variant_index>
2

> <minimizedAffinity>
0.00000

> <CNNscore>
0.2958683372

> <CNNaffinity>
3.3093500137

> <CNN_VS>
0.9791318774

> <CNNaffinity_variance>
1.3112264872

$$$$
LSD__p2


 30 34  0  0  0  0  0  0  0  0999 V2000
   -2.0638    0.2987    6.5795 C   0  0  0  0  0  0  0  0  0  0  0  0
   -2.8885    0.3276    5.3607 N   0  0  0  0  0  0  0  0  0  0  0  0
   -4.2235    0.6923    5.4389 C   0  0  0  0  0  0  0  0  0  0  0  0
   -4.9813    0.9961    4.3772 C   0  0  0  0  0  0  0  0  0  0  0  0
   -6.4465    0.6798    4.3310 C   0  0  0  0  0  0  0  0  0  0  0  0
   -6.5639   -0.6608    3.5657 C   0  0  0  0  0  0  0  0  0  0  0  0
   -5.7171   -0.7485    2.2504 C   0  0  0  0  0  0  0  0  0  0  0  0
   -4.2794   -0.2094    2.4680 N   0  0  0  0  0  0  0  0  0  0  0  0
   -3.3996   -1.1585    3.3093 C   0  0  0  0  0  0  0  0  0  0  0  0
   -2.3421   -0.5000    4.2433 C   0  0  0  0  0  0  0  0  0  0  0  0
   -4.4169    1.1982    3.0077 C   0  0  0  0  0  0  0  0  0  0  0  0
   -3.8475   -0.1332    1.5430 H   0  0  0  0  0  0  0  0  0  0  0  0
   -5.7043   -2.0875    1.5266 C   0  0  0  0  0  0  0  0  0  0  0  0
   -5.1631   -2.2597    0.2414 C   0  0  0  0  0  0  0  0  0  0  0  0
   -5.2013   -3.5075   -0.3914 C   0  0  0  0  0  0  0  0  0  0  0  0
   -5.7825   -4.5977    0.2488 C   0  0  0  0  0  0  0  0  0  0  0  0
   -5.8324   -6.1258   -0.5344 Cl  0  0  0  0  0  0  0  0  0  0  0  0
   -6.3231   -4.4523    1.5222 C   0  0  0  0  0  0  0  0  0  0  0  0
   -6.2835   -3.2070    2.1578 C   0  0  0  0  0  0  0  0  0  0  0  0
   -3.1534    2.0725    2.7936 C   0  0  0  0  0  0  0  0  0  0  0  0
   -3.4320    3.5169    3.0982 C   0  0  0  0  0  0  0  0  0  0  0  0
   -4.1259    4.3971    2.2905 C   0  0  0  0  0  0  0  0  0  0  0  0
   -4.1512    5.6191    2.9078 N   0  0  0  0  0  0  0  0  0  0  0  0
   -3.4681    5.5613    4.1002 C   0  0  0  0  0  0  0  0  0  0  0  0
   -3.2295    6.5648    5.0461 C   0  0  0  0  0  0  0  0  0  0  0  0
   -2.5109    6.2166    6.1924 C   0  0  0  0  0  0  0  0  0  0  0  0
   -2.0545    4.9151    6.3847 C   0  0  0  0  0  0  0  0  0  0  0  0
   -2.3012    3.9222    5.4283 C   0  0  0  0  0  0  0  0  0  0  0  0
   -3.0186    4.2493    4.2582 C   0  0  0  0  0  0  0  0  0  0  0  0
   -4.6053    6.4485    2.5446 H   0  0  0  0  0  0  0  0  0  0  0  0
  1  2  1  0
  2  3  1  0
  3  4  2  0
  4  5  1  0
  5  6  1  0
  6  7  1  0
  7 13  1  0
 13 14  2  0
 14 15  1  0
 15 16  2  0
 16 17  1  0
 16 18  1  0
 18 19  2  0
  7  8  1  0
  8  9  1  0
  9 10  1  0
  8 11  1  0
 11 20  1  0
 20 21  1  0
 21 22  2  0
 22 23  1  0
 23 24  1  0
 24 25  2  0
 25 26  1  0
 26 27  2  0
 27 28  1  0
 28 29  2  0
 10  2  1  0
 29 21  1  0
 11  4  1  0
 29 24  1  0
 19 13  1  0
  8 12  1  0
 23 30  1  0
M  CHG 1   8   1
M  END
> <input_smiles>
CN1CCN(C2CC3=CNC4=CC=CC=C34)C(CCC2=C1)c5ccc(Cl)cc5

> <prot_variant_index>
2

> <minimizedAffinity>
0.00000

> <CNNscore>
0.2948488295

> <CNNaffinity>
3.3380362988

> <CNN_VS>
0.9842160940

> <CNNaffinity_variance>
1.1778014898

$$$$
LSD__p2


 30 34  0  0  0  0  0  0  0  0999 V2000
   -2.9690   -1.1903   -1.1668 C   0  0  0  0  0  0  0  0  0  0  0  0
   -2.4737   -1.9726   -0.0226 N   0  0  0  0  0  0  0  0  0  0  0  0
   -2.8318   -1.6122    1.2671 C   0  0  0  0  0  0  0  0  0  0  0  0
   -2.6523   -2.3922    2.3409 C   0  0  0  0  0  0  0  0  0  0  0  0
   -2.3408   -1.8226    3.6927 C   0  0  0  0  0  0  0  0  0  0  0  0
   -0.8016   -1.9015    3.8383 C   0  0  0  0  0  0  0  0  0  0  0  0
   -0.1661   -3.2700    3.4161 C   0  0  0  0  0  0  0  0  0  0  0  0
   -0.7521   -3.7732    2.0714 N   0  0  0  0  0  0  0  0  0  0  0  0
   -0.2543   -2.9634    0.8552 C   0  0  0  0  0  0  0  0  0  0  0  0
   -1.2516   -2.7766   -0.3259 C   0  0  0  0  0  0  0  0  0  0  0  0
   -2.2551   -3.8300    2.2429 C   0  0  0  0  0  0  0  0  0  0  0  0
   -0.4294   -4.7370    1.9487 H   0  0  0  0  0  0  0  0  0  0  0  0
    1.3536   -3.3570    3.4267 C   0  0  0  0  0  0  0  0  0  0  0  0
    2.0538   -4.5654    3.2721 C   0  0  0  0  0  0  0  0  0  0  0  0
    3.4524   -4.5943    3.3169 C   0  0  0  0  0  0  0  0  0  0  0  0
    4.1691   -3.4188    3.5195 C   0  0  0  0  0  0  0  0  0  0  0  0
    5.8854   -3.4603    3.5798 Cl  0  0  0  0  0  0  0  0  0  0  0  0
    3.4981   -2.2101    3.6732 C   0  0  0  0  0  0  0  0  0  0  0  0
    2.1006   -2.1783    3.6259 C   0  0  0  0  0  0  0  0  0  0  0  0
   -2.9602   -4.7793    1.2387 C   0  0  0  0  0  0  0  0  0  0  0  0
   -4.3960   -5.0050    1.6182 C   0  0  0  0  0  0  0  0  0  0  0  0
   -4.8468   -5.8190    2.6393 C   0  0  0  0  0  0  0  0  0  0  0  0
   -6.2153   -5.7719    2.6550 N   0  0  0  0  0  0  0  0  0  0  0  0
   -6.6723   -4.9545    1.6476 C   0  0  0  0  0  0  0  0  0  0  0  0
   -7.9836   -4.6261    1.2851 C   0  0  0  0  0  0  0  0  0  0  0  0
   -8.1582   -3.7436    0.2163 C   0  0  0  0  0  0  0  0  0  0  0  0
   -7.0637   -3.2088   -0.4582 C   0  0  0  0  0  0  0  0  0  0  0  0
   -5.7574   -3.5478   -0.0834 C   0  0  0  0  0  0  0  0  0  0  0  0
   -5.5536   -4.4426    0.9883 C   0  0  0  0  0  0  0  0  0  0  0  0
   -6.8100   -6.2646    3.3104 H   0  0  0  0  0  0  0  0  0  0  0  0
  1  2  1  0
  2  3  1  0
  3  4  2  0
  4  5  1  0
  5  6  1  0
  6  7  1  0
  7 13  1  0
 13 14  2  0
 14 15  1  0
 15 16  2  0
 16 17  1  0
 16 18  1  0
 18 19  2  0
  7  8  1  0
  8  9  1  0
  9 10  1  0
  8 11  1  0
 11 20  1  0
 20 21  1  0
 21 22  2  0
 22 23  1  0
 23 24  1  0
 24 25  2  0
 25 26  1  0
 26 27  2  0
 27 28  1  0
 28 29  2  0
 10  2  1  0
 29 21  1  0
 11  4  1  0
 29 24  1  0
 19 13  1  0
  8 12  1  0
 23 30  1  0
M  CHG 1   8   1
M  END
> <input_smiles>
CN1CCN(C2CC3=CNC4=CC=CC=C34)C(CCC2=C1)c5ccc(Cl)cc5

> <prot_variant_index>
2

> <minimizedAffinity>
0.00000

> <CNNscore>
0.2910523117

> <CNNaffinity>
3.2887039185

> <CNN_VS>
0.9571848512

> <CNNaffinity_variance>
1.0930724144

$$$$
LSD__p2


 30 34  0  0  0  0  0  0  0  0999 V2000
   -2.5726   -0.2446   -2.6055 C   0  0  0  0  0  0  0  0  0  0  0  0
   -1.7331   -1.1914   -1.8536 N   0  0  0  0  0  0  0  0  0  0  0  0
   -1.9661   -1.3990   -0.5031 C   0  0  0  0  0  0  0  0  0  0  0  0
   -1.4405   -2.4090    0.2020 C   0  0  0  0  0  0  0  0  0  0  0  0
   -1.0732   -2.2608    1.6484 C   0  0  0  0  0  0  0  0  0  0  0  0
    0.4428   -1.9475    1.6679 C   0  0  0  0  0  0  0  0  0  0  0  0
    1.3189   -2.8587    0.7422 C   0  0  0  0  0  0  0  0  0  0  0  0
    0.6737   -3.0268   -0.6579 N   0  0  0  0  0  0  0  0  0  0  0  0
    0.7678   -1.7518   -1.5230 C   0  0  0  0  0  0  0  0  0  0  0  0
   -0.4137   -1.4696   -2.4970 C   0  0  0  0  0  0  0  0  0  0  0  0
   -0.7260   -3.5579   -0.4339 C   0  0  0  0  0  0  0  0  0  0  0  0
    1.1979   -3.7620   -1.1404 H   0  0  0  0  0  0  0  0  0  0  0  0
    2.7974   -2.5131    0.6343 C   0  0  0  0  0  0  0  0  0  0  0  0
    3.3397   -1.3063    1.1076 C   0  0  0  0  0  0  0  0  0  0  0  0
    4.7028   -1.0257    0.9588 C   0  0  0  0  0  0  0  0  0  0  0  0
    5.5407   -1.9440    0.3335 C   0  0  0  0  0  0  0  0  0  0  0  0
    7.2119   -1.5924    0.1478 Cl  0  0  0  0  0  0  0  0  0  0  0  0
    5.0272   -3.1463   -0.1415 C   0  0  0  0  0  0  0  0  0  0  0  0
    3.6660   -3.4303    0.0086 C   0  0  0  0  0  0  0  0  0  0  0  0
   -1.3250   -4.2745   -1.6726 C   0  0  0  0  0  0  0  0  0  0  0  0
   -0.4300   -5.3843   -2.1459 C   0  0  0  0  0  0  0  0  0  0  0  0
   -0.1974   -6.5759   -1.4867 C   0  0  0  0  0  0  0  0  0  0  0  0
    0.6866   -7.3128   -2.2288 N   0  0  0  0  0  0  0  0  0  0  0  0
    1.0541   -6.6162   -3.3563 C   0  0  0  0  0  0  0  0  0  0  0  0
    1.9365   -6.9727   -4.3824 C   0  0  0  0  0  0  0  0  0  0  0  0
    2.1100   -6.0664   -5.4313 C   0  0  0  0  0  0  0  0  0  0  0  0
    1.4237   -4.8550   -5.4531 C   0  0  0  0  0  0  0  0  0  0  0  0
    0.5442   -4.5127   -4.4182 C   0  0  0  0  0  0  0  0  0  0  0  0
    0.3564   -5.4073   -3.3434 C   0  0  0  0  0  0  0  0  0  0  0  0
    1.0244   -8.2369   -1.9879 H   0  0  0  0  0  0  0  0  0  0  0  0
  1  2  1  0
  2  3  1  0
  3  4  2  0
  4  5  1  0
  5  6  1  0
  6  7  1  0
  7 13  1  0
 13 14  2  0
 14 15  1  0
 15 16  2  0
 16 17  1  0
 16 18  1  0
 18 19  2  0
  7  8  1  0
  8  9  1  0
  9 10  1  0
  8 11  1  0
 11 20  1  0
 20 21  1  0
 21 22  2  0
 22 23  1  0
 23 24  1  0
 24 25  2  0
 25 26  1  0
 26 27  2  0
 27 28  1  0
 28 29  2  0
 10  2  1  0
 29 21  1  0
 11  4  1  0
 29 24  1  0
 19 13  1  0
  8 12  1  0
 23 30  1  0
M  CHG 1   8   1
M  END
> <input_smiles>
CN1CCN(C2CC3=CNC4=CC=CC=C34)C(CCC2=C1)c5ccc(Cl)cc5

> <prot_variant_index>
2

> <minimizedAffinity>
0.00000

> <CNNscore>
0.2905476093

> <CNNaffinity>
3.5518467426

> <CNN_VS>
1.0319806337

> <CNNaffinity_variance>
1.1111254692

$$$$
LSD__p2


 30 34  0  0  0  0  0  0  0  0999 V2000
   -1.9273    5.2681   -0.7540 C   0  0  0  0  0  0  0  0  0  0  0  0
   -1.7785    3.8974   -0.2388 N   0  0  0  0  0  0  0  0  0  0  0  0
   -1.4647    2.8636   -1.1071 C   0  0  0  0  0  0  0  0  0  0  0  0
   -1.0597    1.6495   -0.7124 C   0  0  0  0  0  0  0  0  0  0  0  0
   -1.4108    0.4081   -1.4769 C   0  0  0  0  0  0  0  0  0  0  0  0
   -2.6545   -0.1840   -0.7701 C   0  0  0  0  0  0  0  0  0  0  0  0
   -2.5614   -0.2446    0.7927 C   0  0  0  0  0  0  0  0  0  0  0  0
   -2.0102    1.0820    1.3769 N   0  0  0  0  0  0  0  0  0  0  0  0
   -3.0261    2.2419    1.3043 C   0  0  0  0  0  0  0  0  0  0  0  0
   -2.4520    3.6710    1.0755 C   0  0  0  0  0  0  0  0  0  0  0  0
   -0.6808    1.3393    0.7000 C   0  0  0  0  0  0  0  0  0  0  0  0
   -1.8126    0.9113    2.3668 H   0  0  0  0  0  0  0  0  0  0  0  0
   -3.8046   -0.7062    1.5401 C   0  0  0  0  0  0  0  0  0  0  0  0
   -3.8078   -1.0038    2.9134 C   0  0  0  0  0  0  0  0  0  0  0  0
   -4.9726   -1.4512    3.5473 C   0  0  0  0  0  0  0  0  0  0  0  0
   -6.1474   -1.6100    2.8184 C   0  0  0  0  0  0  0  0  0  0  0  0
   -7.5730   -2.1653    3.5997 Cl  0  0  0  0  0  0  0  0  0  0  0  0
   -6.1692   -1.3199    1.4582 C   0  0  0  0  0  0  0  0  0  0  0  0
   -5.0072   -0.8698    0.8231 C   0  0  0  0  0  0  0  0  0  0  0  0
    0.2491    2.2913    1.4974 C   0  0  0  0  0  0  0  0  0  0  0  0
    1.6385    2.3004    0.9264 C   0  0  0  0  0  0  0  0  0  0  0  0
    2.5876    1.3093    1.0858 C   0  0  0  0  0  0  0  0  0  0  0  0
    3.7267    1.6949    0.4309 N   0  0  0  0  0  0  0  0  0  0  0  0
    3.5480    2.9331   -0.1407 C   0  0  0  0  0  0  0  0  0  0  0  0
    4.4389    3.7129   -0.8868 C   0  0  0  0  0  0  0  0  0  0  0  0
    3.9784    4.9410   -1.3677 C   0  0  0  0  0  0  0  0  0  0  0  0
    2.6772    5.3676   -1.1151 C   0  0  0  0  0  0  0  0  0  0  0  0
    1.7977    4.5755   -0.3662 C   0  0  0  0  0  0  0  0  0  0  0  0
    2.2401    3.3339    0.1371 C   0  0  0  0  0  0  0  0  0  0  0  0
    4.5798    1.1519    0.3721 H   0  0  0  0  0  0  0  0  0  0  0  0
  1  2  1  0
  2  3  1  0
  3  4  2  0
  4  5  1  0
  5  6  1  0
  6  7  1  0
  7 13  1  0
 13 14  2  0
 14 15  1  0
 15 16  2  0
 16 17  1  0
 16 18  1  0
 18 19  2  0
  7  8  1  0
  8  9  1  0
  9 10  1  0
  8 11  1  0
 11 20  1  0
 20 21  1  0
 21 22  2  0
 22 23  1  0
 23 24  1  0
 24 25  2  0
 25 26  1  0
 26 27  2  0
 27 28  1  0
 28 29  2  0
 10  2  1  0
 29 21  1  0
 11  4  1  0
 29 24  1  0
 19 13  1  0
  8 12  1  0
 23 30  1  0
M  CHG 1   8   1
M  END
> <input_smiles>
CN1CCN(C2CC3=CNC4=CC=CC=C34)C(CCC2=C1)c5ccc(Cl)cc5

> <prot_variant_index>
2

> <minimizedAffinity>
0.00000

> <CNNscore>
0.2898719013

> <CNNaffinity>
3.4039213657

> <CNN_VS>
0.9867011309

> <CNNaffinity_variance>
1.1273576021

$$$$
LSD__p2


 30 34  0  0  0  0  0  0  0  0999 V2000
   -0.7451    3.6132    2.1455 C   0  0  0  0  0  0  0  0  0  0  0  0
   -0.8853    2.7994    0.9270 N   0  0  0  0  0  0  0  0  0  0  0  0
   -2.1313    2.3165    0.5588 C   0  0  0  0  0  0  0  0  0  0  0  0
   -2.4083    1.7955   -0.6434 C   0  0  0  0  0  0  0  0  0  0  0  0
   -3.4006    0.6847   -0.8179 C   0  0  0  0  0  0  0  0  0  0  0  0
   -2.5692   -0.6207   -0.8548 C   0  0  0  0  0  0  0  0  0  0  0  0
   -1.3011   -0.5720   -1.7736 C   0  0  0  0  0  0  0  0  0  0  0  0
   -0.5029    0.7410   -1.5645 N   0  0  0  0  0  0  0  0  0  0  0  0
    0.2515    0.7810   -0.2183 C   0  0  0  0  0  0  0  0  0  0  0  0
    0.3909    2.1692    0.4729 C   0  0  0  0  0  0  0  0  0  0  0  0
   -1.4681    1.8826   -1.8024 C   0  0  0  0  0  0  0  0  0  0  0  0
    0.1989    0.7839   -2.3086 H   0  0  0  0  0  0  0  0  0  0  0  0
   -0.3857   -1.7880   -1.7504 C   0  0  0  0  0  0  0  0  0  0  0  0
    0.6667   -1.9734   -2.6629 C   0  0  0  0  0  0  0  0  0  0  0  0
    1.4625   -3.1238   -2.6153 C   0  0  0  0  0  0  0  0  0  0  0  0
    1.2162   -4.1043   -1.6590 C   0  0  0  0  0  0  0  0  0  0  0  0
    2.1918   -5.5173   -1.6085 Cl  0  0  0  0  0  0  0  0  0  0  0  0
    0.1813   -3.9421   -0.7439 C   0  0  0  0  0  0  0  0  0  0  0  0
   -0.6135   -2.7920   -0.7876 C   0  0  0  0  0  0  0  0  0  0  0  0
   -0.7713    3.2225   -2.1573 C   0  0  0  0  0  0  0  0  0  0  0  0
   -1.7633    4.2412   -2.6415 C   0  0  0  0  0  0  0  0  0  0  0  0
   -2.3553    4.2678   -3.8895 C   0  0  0  0  0  0  0  0  0  0  0  0
   -3.1829    5.3570   -3.9502 N   0  0  0  0  0  0  0  0  0  0  0  0
   -3.1300    6.0582   -2.7681 C   0  0  0  0  0  0  0  0  0  0  0  0
   -3.7934    7.2315   -2.3914 C   0  0  0  0  0  0  0  0  0  0  0  0
   -3.5636    7.7202   -1.1030 C   0  0  0  0  0  0  0  0  0  0  0  0
   -2.7078    7.0575   -0.2269 C   0  0  0  0  0  0  0  0  0  0  0  0
   -2.0510    5.8844   -0.6192 C   0  0  0  0  0  0  0  0  0  0  0  0
   -2.2603    5.3736   -1.9177 C   0  0  0  0  0  0  0  0  0  0  0  0
   -3.7537    5.6142   -4.7465 H   0  0  0  0  0  0  0  0  0  0  0  0
  1  2  1  0
  2  3  1  0
  3  4  2  0
  4  5  1  0
  5  6  1  0
  6  7  1  0
  7 13  1  0
 13 14  2  0
 14 15  1  0
 15 16  2  0
 16 17  1  0
 16 18  1  0
 18 19  2  0
  7  8  1  0
  8  9  1  0
  9 10  1  0
  8 11  1  0
 11 20  1  0
 20 21  1  0
 21 22  2  0
 22 23  1  0
 23 24  1  0
 24 25  2  0
 25 26  1  0
 26 27  2  0
 27 28  1  0
 28 29  2  0
 10  2  1  0
 29 21  1  0
 11  4  1  0
 29 24  1  0
 19 13  1  0
  8 12  1  0
 23 30  1  0
M  CHG 1   8   1
M  END
> <input_smiles>
CN1CCN(C2CC3=CNC4=CC=CC=C34)C(CCC2=C1)c5ccc(Cl)cc5

> <prot_variant_index>
2

> <minimizedAffinity>
0.00000

> <CNNscore>
0.2897928953

> <CNNaffinity>
3.3612663746

> <CNN_VS>
0.9740710855

> <CNNaffinity_variance>
1.2808194160

$$$$
LSD__p2


 30 34  0  0  0  0  0  0  0  0999 V2000
   -0.9537    6.1244   -0.1961 C   0  0  0  0  0  0  0  0  0  0  0  0
   -1.2669    4.7024    0.0184 N   0  0  0  0  0  0  0  0  0  0  0  0
   -0.9072    3.7644   -0.9367 C   0  0  0  0  0  0  0  0  0  0  0  0
   -0.9125    2.4415   -0.7278 C   0  0  0  0  0  0  0  0  0  0  0  0
   -1.2429    1.4668   -1.8185 C   0  0  0  0  0  0  0  0  0  0  0  0
   -2.7428    1.1275   -1.6399 C   0  0  0  0  0  0  0  0  0  0  0  0
   -3.1791    0.8111   -0.1688 C   0  0  0  0  0  0  0  0  0  0  0  0
   -2.5878    1.8407    0.8289 N   0  0  0  0  0  0  0  0  0  0  0  0
   -3.2623    3.2261    0.7375 C   0  0  0  0  0  0  0  0  0  0  0  0
   -2.3636    4.4689    1.0058 C   0  0  0  0  0  0  0  0  0  0  0  0
   -1.0876    1.8339    0.6269 C   0  0  0  0  0  0  0  0  0  0  0  0
   -2.7635    1.4775    1.7698 H   0  0  0  0  0  0  0  0  0  0  0  0
   -4.6650    0.5899    0.0773 C   0  0  0  0  0  0  0  0  0  0  0  0
   -5.6541    0.8991   -0.8716 C   0  0  0  0  0  0  0  0  0  0  0  0
   -7.0096    0.7018   -0.5846 C   0  0  0  0  0  0  0  0  0  0  0  0
   -7.3950    0.1966    0.6535 C   0  0  0  0  0  0  0  0  0  0  0  0
   -9.0604   -0.0382    1.0034 Cl  0  0  0  0  0  0  0  0  0  0  0  0
   -6.4338   -0.1188    1.6082 C   0  0  0  0  0  0  0  0  0  0  0  0
   -5.0784    0.0748    1.3226 C   0  0  0  0  0  0  0  0  0  0  0  0
   -0.2935    2.3742    1.8452 C   0  0  0  0  0  0  0  0  0  0  0  0
   -0.7678    1.7484    3.1258 C   0  0  0  0  0  0  0  0  0  0  0  0
   -1.4357    2.3967    4.1468 C   0  0  0  0  0  0  0  0  0  0  0  0
   -1.6795    1.4911    5.1446 N   0  0  0  0  0  0  0  0  0  0  0  0
   -1.1653    0.2617    4.8041 C   0  0  0  0  0  0  0  0  0  0  0  0
   -1.1707   -0.9414    5.5191 C   0  0  0  0  0  0  0  0  0  0  0  0
   -0.5835   -2.0560    4.9155 C   0  0  0  0  0  0  0  0  0  0  0  0
   -0.0184   -1.9693    3.6458 C   0  0  0  0  0  0  0  0  0  0  0  0
   -0.0206   -0.7577    2.9433 C   0  0  0  0  0  0  0  0  0  0  0  0
   -0.6011    0.3849    3.5334 C   0  0  0  0  0  0  0  0  0  0  0  0
   -2.1670    1.6912    6.0097 H   0  0  0  0  0  0  0  0  0  0  0  0
  1  2  1  0
  2  3  1  0
  3  4  2  0
  4  5  1  0
  5  6  1  0
  6  7  1  0
  7 13  1  0
 13 14  2  0
 14 15  1  0
 15 16  2  0
 16 17  1  0
 16 18  1  0
 18 19  2  0
  7  8  1  0
  8  9  1  0
  9 10  1  0
  8 11  1  0
 11 20  1  0
 20 21  1  0
 21 22  2  0
 22 23  1  0
 23 24  1  0
 24 25  2  0
 25 26  1  0
 26 27  2  0
 27 28  1  0
 28 29  2  0
 10  2  1  0
 29 21  1  0
 11  4  1  0
 29 24  1  0
 19 13  1  0
  8 12  1  0
 23 30  1  0
M  CHG 1   8   1
M  END
> <input_smiles>
CN1CCN(C2CC3=CNC4=CC=CC=C34)C(CCC2=C1)c5ccc(Cl)cc5

> <prot_variant_index>
2

> <minimizedAffinity>
0.00000

> <CNNscore>
0.2844488919

> <CNNaffinity>
3.3467838764

> <CNN_VS>
0.9519889355

> <CNNaffinity_variance>
1.2048414946

$$$$
LSD__p2


 30 34  0  0  0  0  0  0  0  0999 V2000
   -2.1351    6.8259   -0.8071 C   0  0  0  0  0  0  0  0  0  0  0  0
   -2.6325    5.4814   -0.4736 N   0  0  0  0  0  0  0  0  0  0  0  0
   -2.4297    4.4317   -1.3558 C   0  0  0  0  0  0  0  0  0  0  0  0
   -2.6088    3.1423   -1.0410 C   0  0  0  0  0  0  0  0  0  0  0  0
   -3.0982    2.1407   -2.0440 C   0  0  0  0  0  0  0  0  0  0  0  0
   -4.6248    2.0257   -1.8139 C   0  0  0  0  0  0  0  0  0  0  0  0
   -5.0596    1.8873   -0.3150 C   0  0  0  0  0  0  0  0  0  0  0  0
   -4.3068    2.9000    0.5866 N   0  0  0  0  0  0  0  0  0  0  0  0
   -4.7893    4.3537    0.3951 C   0  0  0  0  0  0  0  0  0  0  0  0
   -3.7232    5.4782    0.5474 C   0  0  0  0  0  0  0  0  0  0  0  0
   -2.8275    2.6715    0.3609 C   0  0  0  0  0  0  0  0  0  0  0  0
   -4.5044    2.6385    1.5564 H   0  0  0  0  0  0  0  0  0  0  0  0
   -6.5543    1.8922   -0.0274 C   0  0  0  0  0  0  0  0  0  0  0  0
   -7.0945    1.5749    1.2303 C   0  0  0  0  0  0  0  0  0  0  0  0
   -8.4791    1.5676    1.4348 C   0  0  0  0  0  0  0  0  0  0  0  0
   -9.3415    1.8738    0.3864 C   0  0  0  0  0  0  0  0  0  0  0  0
  -11.0403    1.8576    0.6406 Cl  0  0  0  0  0  0  0  0  0  0  0  0
   -8.8301    2.1929   -0.8672 C   0  0  0  0  0  0  0  0  0  0  0  0
   -7.4468    2.2038   -1.0732 C   0  0  0  0  0  0  0  0  0  0  0  0
   -1.9344    3.1903    1.5185 C   0  0  0  0  0  0  0  0  0  0  0  0
   -0.4847    2.8886    1.2656 C   0  0  0  0  0  0  0  0  0  0  0  0
    0.4967    3.8145    0.9686 C   0  0  0  0  0  0  0  0  0  0  0  0
    1.6789    3.1466    0.7913 N   0  0  0  0  0  0  0  0  0  0  0  0
    1.4865    1.7938    0.9481 C   0  0  0  0  0  0  0  0  0  0  0  0
    2.4021    0.7403    0.8453 C   0  0  0  0  0  0  0  0  0  0  0  0
    1.9289   -0.5537    1.0761 C   0  0  0  0  0  0  0  0  0  0  0  0
    0.5942   -0.7817    1.4010 C   0  0  0  0  0  0  0  0  0  0  0  0
   -0.3098    0.2835    1.4997 C   0  0  0  0  0  0  0  0  0  0  0  0
    0.1410    1.5996    1.2644 C   0  0  0  0  0  0  0  0  0  0  0  0
    2.5689    3.5800    0.5761 H   0  0  0  0  0  0  0  0  0  0  0  0
  1  2  1  0
  2  3  1  0
  3  4  2  0
  4  5  1  0
  5  6  1  0
  6  7  1  0
  7 13  1  0
 13 14  2  0
 14 15  1  0
 15 16  2  0
 16 17  1  0
 16 18  1  0
 18 19  2  0
  7  8  1  0
  8  9  1  0
  9 10  1  0
  8 11  1  0
 11 20  1  0
 20 21  1  0
 21 22  2  0
 22 23  1  0
 23 24  1  0
 24 25  2  0
 25 26  1  0
 26 27  2  0
 27 28  1  0
 28 29  2  0
 10  2  1  0
 29 21  1  0
 11  4  1  0
 29 24  1  0
 19 13  1  0
  8 12  1  0
 23 30  1  0
M  CHG 1   8   1
M  END
> <input_smiles>
CN1CCN(C2CC3=CNC4=CC=CC=C34)C(CCC2=C1)c5ccc(Cl)cc5

> <prot_variant_index>
2

> <minimizedAffinity>
0.00000

> <CNNscore>
0.2832821608

> <CNNaffinity>
3.2629451752

> <CNN_VS>
0.9243341684

> <CNNaffinity_variance>
1.2108933926

$$$$
LSD__p2


 30 34  0  0  0  0  0  0  0  0999 V2000
   -0.6050    6.7172    1.1910 C   0  0  0  0  0  0  0  0  0  0  0  0
    0.8001    6.4972    1.5703 N   0  0  0  0  0  0  0  0  0  0  0  0
    1.7662    7.4227    1.2077 C   0  0  0  0  0  0  0  0  0  0  0  0
    3.0058    7.4501    1.7140 C   0  0  0  0  0  0  0  0  0  0  0  0
    4.1874    7.8818    0.8977 C   0  0  0  0  0  0  0  0  0  0  0  0
    4.8316    6.5779    0.3671 C   0  0  0  0  0  0  0  0  0  0  0  0
    5.0080    5.4448    1.4347 C   0  0  0  0  0  0  0  0  0  0  0  0
    3.7280    5.2744    2.2935 N   0  0  0  0  0  0  0  0  0  0  0  0
    2.5669    4.6120    1.5216 C   0  0  0  0  0  0  0  0  0  0  0  0
    1.1241    5.0726    1.8829 C   0  0  0  0  0  0  0  0  0  0  0  0
    3.4197    6.6297    2.8932 C   0  0  0  0  0  0  0  0  0  0  0  0
    3.9715    4.6532    3.0699 H   0  0  0  0  0  0  0  0  0  0  0  0
    5.5251    4.1025    0.9367 C   0  0  0  0  0  0  0  0  0  0  0  0
    5.6033    3.7683   -0.4259 C   0  0  0  0  0  0  0  0  0  0  0  0
    6.0610    2.5089   -0.8300 C   0  0  0  0  0  0  0  0  0  0  0  0
    6.4433    1.5668    0.1201 C   0  0  0  0  0  0  0  0  0  0  0  0
    6.9987    0.0202   -0.3807 Cl  0  0  0  0  0  0  0  0  0  0  0  0
    6.3766    1.8753    1.4748 C   0  0  0  0  0  0  0  0  0  0  0  0
    5.9223    3.1342    1.8810 C   0  0  0  0  0  0  0  0  0  0  0  0
    2.5287    6.5606    4.1612 C   0  0  0  0  0  0  0  0  0  0  0  0
    3.0411    5.5353    5.1322 C   0  0  0  0  0  0  0  0  0  0  0  0
    2.4147    4.3501    5.4664 C   0  0  0  0  0  0  0  0  0  0  0  0
    3.1863    3.7020    6.3935 N   0  0  0  0  0  0  0  0  0  0  0  0
    4.3012    4.4515    6.6887 C   0  0  0  0  0  0  0  0  0  0  0  0
    5.3474    4.1890    7.5804 C   0  0  0  0  0  0  0  0  0  0  0  0
    6.3758    5.1305    7.6672 C   0  0  0  0  0  0  0  0  0  0  0  0
    6.3586    6.2850    6.8889 C   0  0  0  0  0  0  0  0  0  0  0  0
    5.3040    6.5333    6.0013 C   0  0  0  0  0  0  0  0  0  0  0  0
    4.2492    5.6018    5.8997 C   0  0  0  0  0  0  0  0  0  0  0  0
    2.9729    2.8016    6.8055 H   0  0  0  0  0  0  0  0  0  0  0  0
  1  2  1  0
  2  3  1  0
  3  4  2  0
  4  5  1  0
  5  6  1  0
  6  7  1  0
  7 13  1  0
 13 14  2  0
 14 15  1  0
 15 16  2  0
 16 17  1  0
 16 18  1  0
 18 19  2  0
  7  8  1  0
  8  9  1  0
  9 10  1  0
  8 11  1  0
 11 20  1  0
 20 21  1  0
 21 22  2  0
 22 23  1  0
 23 24  1  0
 24 25  2  0
 25 26  1  0
 26 27  2  0
 27 28  1  0
 28 29  2  0
 10  2  1  0
 29 21  1  0
 11  4  1  0
 29 24  1  0
 19 13  1  0
  8 12  1  0
 23 30  1  0
M  CHG 1   8   1
M  END
> <input_smiles>
CN1CCN(C2CC3=CNC4=CC=CC=C34)C(CCC2=C1)c5ccc(Cl)cc5

> <prot_variant_index>
2

> <minimizedAffinity>
0.00000

> <CNNscore>
0.2832494974

> <CNNaffinity>
3.4421532154

> <CNN_VS>
0.9749881625

> <CNNaffinity_variance>
1.5083857775

$$$$
LSD__p2


 30 34  0  0  0  0  0  0  0  0999 V2000
   -2.5581    6.7172    1.1910 C   0  0  0  0  0  0  0  0  0  0  0  0
   -2.9735    5.3319    1.4643 N   0  0  0  0  0  0  0  0  0  0  0  0
   -2.4666    4.2949    0.6969 C   0  0  0  0  0  0  0  0  0  0  0  0
   -2.5754    2.9999    1.0205 C   0  0  0  0  0  0  0  0  0  0  0  0
   -2.7164    1.9303   -0.0211 C   0  0  0  0  0  0  0  0  0  0  0  0
   -4.2346    1.6484   -0.1323 C   0  0  0  0  0  0  0  0  0  0  0  0
   -4.9805    1.4909    1.2365 C   0  0  0  0  0  0  0  0  0  0  0  0
   -4.5626    2.5992    2.2376 N   0  0  0  0  0  0  0  0  0  0  0  0
   -5.1397    3.9853    1.8792 C   0  0  0  0  0  0  0  0  0  0  0  0
   -4.2605    5.2256    2.2155 C   0  0  0  0  0  0  0  0  0  0  0  0
   -3.0550    2.5345    2.3578 C   0  0  0  0  0  0  0  0  0  0  0  0
   -4.9460    2.3359    3.1495 H   0  0  0  0  0  0  0  0  0  0  0  0
   -6.4936    1.3329    1.1831 C   0  0  0  0  0  0  0  0  0  0  0  0
   -7.2492    1.5704    0.0225 C   0  0  0  0  0  0  0  0  0  0  0  0
   -8.6423    1.4369    0.0342 C   0  0  0  0  0  0  0  0  0  0  0  0
   -9.2987    1.0680    1.2045 C   0  0  0  0  0  0  0  0  0  0  0  0
  -11.0094    0.9114    1.2155 Cl  0  0  0  0  0  0  0  0  0  0  0  0
   -8.5720    0.8257    2.3655 C   0  0  0  0  0  0  0  0  0  0  0  0
   -7.1794    0.9555    2.3555 C   0  0  0  0  0  0  0  0  0  0  0  0
   -2.5071    3.1729    3.6612 C   0  0  0  0  0  0  0  0  0  0  0  0
   -3.2646    2.6896    4.8650 C   0  0  0  0  0  0  0  0  0  0  0  0
   -4.0992    3.4527    5.6585 C   0  0  0  0  0  0  0  0  0  0  0  0
   -4.5856    2.6571    6.6613 N   0  0  0  0  0  0  0  0  0  0  0  0
   -4.0686    1.3873    6.5511 C   0  0  0  0  0  0  0  0  0  0  0  0
   -4.2770    0.2616    7.3561 C   0  0  0  0  0  0  0  0  0  0  0  0
   -3.6289   -0.9219    6.9946 C   0  0  0  0  0  0  0  0  0  0  0  0
   -2.8095   -0.9761    5.8700 C   0  0  0  0  0  0  0  0  0  0  0  0
   -2.6109    0.1595    5.0747 C   0  0  0  0  0  0  0  0  0  0  0  0
   -3.2483    1.3695    5.4219 C   0  0  0  0  0  0  0  0  0  0  0  0
   -5.2322    2.9543    7.3822 H   0  0  0  0  0  0  0  0  0  0  0  0
  1  2  1  0
  2  3  1  0
  3  4  2  0
  4  5  1  0
  5  6  1  0
  6  7  1  0
  7 13  1  0
 13 14  2  0
 14 15  1  0
 15 16  2  0
 16 17  1  0
 16 18  1  0
 18 19  2  0
  7  8  1  0
  8  9  1  0
  9 10  1  0
  8 11  1  0
 11 20  1  0
 20 21  1  0
 21 22  2  0
 22 23  1  0
 23 24  1  0
 24 25  2  0
 25 26  1  0
 26 27  2  0
 27 28  1  0
 28 29  2  0
 10  2  1  0
 29 21  1  0
 11  4  1  0
 29 24  1  0
 19 13  1  0
  8 12  1  0
 23 30  1  0
M  CHG 1   8   1
M  END
> <input_smiles>
CN1CCN(C2CC3=CNC4=CC=CC=C34)C(CCC2=C1)c5ccc(Cl)cc5

> <prot_variant_index>
2

> <minimizedAffinity>
0.00000

> <CNNscore>
0.2820357382

> <CNNaffinity>
3.3037331104

> <CNN_VS>
0.9317708015

> <CNNaffinity_variance>
1.3145667315

$$$$
LSD__p2


 30 34  0  0  0  0  0  0  0  0999 V2000
   -2.8820    5.3169   -3.7400 C   0  0  0  0  0  0  0  0  0  0  0  0
   -2.6718    4.0736   -2.9808 N   0  0  0  0  0  0  0  0  0  0  0  0
   -2.8059    2.8474   -3.6131 C   0  0  0  0  0  0  0  0  0  0  0  0
   -2.3917    1.6855   -3.0915 C   0  0  0  0  0  0  0  0  0  0  0  0
   -3.1169    0.3977   -3.3458 C   0  0  0  0  0  0  0  0  0  0  0  0
   -4.0457    0.1894   -2.1249 C   0  0  0  0  0  0  0  0  0  0  0  0
   -3.3708    0.4288   -0.7314 C   0  0  0  0  0  0  0  0  0  0  0  0
   -2.5223    1.7269   -0.7310 N   0  0  0  0  0  0  0  0  0  0  0  0
   -3.3812    3.0095   -0.7352 C   0  0  0  0  0  0  0  0  0  0  0  0
   -2.8119    4.2389   -1.5025 C   0  0  0  0  0  0  0  0  0  0  0  0
   -1.5333    1.6036   -1.8704 C   0  0  0  0  0  0  0  0  0  0  0  0
   -1.9791    1.7266    0.1367 H   0  0  0  0  0  0  0  0  0  0  0  0
   -4.2720    0.3543    0.4931 C   0  0  0  0  0  0  0  0  0  0  0  0
   -3.7795    0.3522    1.8091 C   0  0  0  0  0  0  0  0  0  0  0  0
   -4.6503    0.2543    2.9004 C   0  0  0  0  0  0  0  0  0  0  0  0
   -6.0225    0.1542    2.6921 C   0  0  0  0  0  0  0  0  0  0  0  0
   -7.0869    0.0281    4.0345 Cl  0  0  0  0  0  0  0  0  0  0  0  0
   -6.5339    0.1561    1.3985 C   0  0  0  0  0  0  0  0  0  0  0  0
   -5.6658    0.2568    0.3064 C   0  0  0  0  0  0  0  0  0  0  0  0
   -0.2887    2.5166   -1.7151 C   0  0  0  0  0  0  0  0  0  0  0  0
    0.4090    2.2694   -0.4080 C   0  0  0  0  0  0  0  0  0  0  0  0
    1.1183    1.1333   -0.0692 C   0  0  0  0  0  0  0  0  0  0  0  0
    1.5863    1.2833    1.2089 N   0  0  0  0  0  0  0  0  0  0  0  0
    1.1794    2.4923    1.7232 C   0  0  0  0  0  0  0  0  0  0  0  0
    1.4119    3.0541    2.9837 C   0  0  0  0  0  0  0  0  0  0  0  0
    0.8873    4.3246    3.2332 C   0  0  0  0  0  0  0  0  0  0  0  0
    0.1637    5.0057    2.2578 C   0  0  0  0  0  0  0  0  0  0  0  0
   -0.0607    4.4296    1.0011 C   0  0  0  0  0  0  0  0  0  0  0  0
    0.4523    3.1443    0.7259 C   0  0  0  0  0  0  0  0  0  0  0  0
    2.1504    0.6063    1.7084 H   0  0  0  0  0  0  0  0  0  0  0  0
  1  2  1  0
  2  3  1  0
  3  4  2  0
  4  5  1  0
  5  6  1  0
  6  7  1  0
  7 13  1  0
 13 14  2  0
 14 15  1  0
 15 16  2  0
 16 17  1  0
 16 18  1  0
 18 19  2  0
  7  8  1  0
  8  9  1  0
  9 10  1  0
  8 11  1  0
 11 20  1  0
 20 21  1  0
 21 22  2  0
 22 23  1  0
 23 24  1  0
 24 25  2  0
 25 26  1  0
 26 27  2  0
 27 28  1  0
 28 29  2  0
 10  2  1  0
 29 21  1  0
 11  4  1  0
 29 24  1  0
 19 13  1  0
  8 12  1  0
 23 30  1  0
M  CHG 1   8   1
M  END
> <input_smiles>
CN1CCN(C2CC3=CNC4=CC=CC=C34)C(CCC2=C1)c5ccc(Cl)cc5

> <prot_variant_index>
2

> <minimizedAffinity>
0.00000

> <CNNscore>
0.2817042172

> <CNNaffinity>
3.3615016937

> <CNN_VS>
0.9469491839

> <CNNaffinity_variance>
1.5058708191

$$$$
LSD__p2


 30 34  0  0  0  0  0  0  0  0999 V2000
   -4.3009    1.3699   -2.9464 C   0  0  0  0  0  0  0  0  0  0  0  0
   -3.8396    0.3923   -1.9474 N   0  0  0  0  0  0  0  0  0  0  0  0
   -4.2738    0.4893   -0.6346 C   0  0  0  0  0  0  0  0  0  0  0  0
   -4.1243   -0.4792    0.2782 C   0  0  0  0  0  0  0  0  0  0  0  0
   -3.8998   -0.1747    1.7293 C   0  0  0  0  0  0  0  0  0  0  0  0
   -2.3682   -0.2473    1.9428 C   0  0  0  0  0  0  0  0  0  0  0  0
   -1.6691   -1.4946    1.3024 C   0  0  0  0  0  0  0  0  0  0  0  0
   -2.1700   -1.7413   -0.1444 N   0  0  0  0  0  0  0  0  0  0  0  0
   -1.6371   -0.7015   -1.1533 C   0  0  0  0  0  0  0  0  0  0  0  0
   -2.5787   -0.3117   -2.3304 C   0  0  0  0  0  0  0  0  0  0  0  0
   -3.6771   -1.8623   -0.0711 C   0  0  0  0  0  0  0  0  0  0  0  0
   -1.8110   -2.6561   -0.4313 H   0  0  0  0  0  0  0  0  0  0  0  0
   -0.1499   -1.5495    1.3809 C   0  0  0  0  0  0  0  0  0  0  0  0
    0.5953   -2.6900    1.0367 C   0  0  0  0  0  0  0  0  0  0  0  0
    1.9901   -2.6970    1.1531 C   0  0  0  0  0  0  0  0  0  0  0  0
    2.6579   -1.5678    1.6171 C   0  0  0  0  0  0  0  0  0  0  0  0
    4.3694   -1.5834    1.7640 Cl  0  0  0  0  0  0  0  0  0  0  0  0
    1.9419   -0.4262    1.9621 C   0  0  0  0  0  0  0  0  0  0  0  0
    0.5483   -0.4157    1.8438 C   0  0  0  0  0  0  0  0  0  0  0  0
   -4.3000   -2.6147   -1.2763 C   0  0  0  0  0  0  0  0  0  0  0  0
   -5.7878   -2.7535   -1.1224 C   0  0  0  0  0  0  0  0  0  0  0  0
   -6.7455   -2.1015   -1.8750 C   0  0  0  0  0  0  0  0  0  0  0  0
   -7.9807   -2.4784   -1.4196 N   0  0  0  0  0  0  0  0  0  0  0  0
   -7.8503   -3.3534   -0.3664 C   0  0  0  0  0  0  0  0  0  0  0  0
   -8.8351   -3.9787    0.4067 C   0  0  0  0  0  0  0  0  0  0  0  0
   -8.4118   -4.8468    1.4160 C   0  0  0  0  0  0  0  0  0  0  0  0
   -7.0574   -5.0820    1.6380 C   0  0  0  0  0  0  0  0  0  0  0  0
   -6.0838   -4.4481    0.8557 C   0  0  0  0  0  0  0  0  0  0  0  0
   -6.4846   -3.5610   -0.1657 C   0  0  0  0  0  0  0  0  0  0  0  0
   -8.8652   -2.1626   -1.7989 H   0  0  0  0  0  0  0  0  0  0  0  0
  1  2  1  0
  2  3  1  0
  3  4  2  0
  4  5  1  0
  5  6  1  0
  6  7  1  0
  7 13  1  0
 13 14  2  0
 14 15  1  0
 15 16  2  0
 16 17  1  0
 16 18  1  0
 18 19  2  0
  7  8  1  0
  8  9  1  0
  9 10  1  0
  8 11  1  0
 11 20  1  0
 20 21  1  0
 21 22  2  0
 22 23  1  0
 23 24  1  0
 24 25  2  0
 25 26  1  0
 26 27  2  0
 27 28  1  0
 28 29  2  0
 10  2  1  0
 29 21  1  0
 11  4  1  0
 29 24  1  0
 19 13  1  0
  8 12  1  0
 23 30  1  0
M  CHG 1   8   1
M  END
> <input_smiles>
CN1CCN(C2CC3=CNC4=CC=CC=C34)C(CCC2=C1)c5ccc(Cl)cc5

> <prot_variant_index>
2

> <minimizedAffinity>
0.00000

> <CNNscore>
0.2810888588

> <CNNaffinity>
3.4036929607

> <CNN_VS>
0.9567401409

> <CNNaffinity_variance>
1.0881081820

$$$$
LSD__p2


 30 34  0  0  0  0  0  0  0  0999 V2000
   -2.9476    0.9601   -1.7381 C   0  0  0  0  0  0  0  0  0  0  0  0
   -2.2731    0.1047   -0.7483 N   0  0  0  0  0  0  0  0  0  0  0  0
   -2.6019    0.2106    0.5941 C   0  0  0  0  0  0  0  0  0  0  0  0
   -2.2437   -0.6815    1.5265 C   0  0  0  0  0  0  0  0  0  0  0  0
   -1.9388   -0.2760    2.9377 C   0  0  0  0  0  0  0  0  0  0  0  0
   -0.3989   -0.1344    3.0117 C   0  0  0  0  0  0  0  0  0  0  0  0
    0.4059   -1.3095    2.3591 C   0  0  0  0  0  0  0  0  0  0  0  0
   -0.1793   -1.6941    0.9754 N   0  0  0  0  0  0  0  0  0  0  0  0
    0.1180   -0.6462   -0.1183 C   0  0  0  0  0  0  0  0  0  0  0  0
   -0.9658   -0.4452   -1.2180 C   0  0  0  0  0  0  0  0  0  0  0  0
   -1.6440   -2.0094    1.1921 C   0  0  0  0  0  0  0  0  0  0  0  0
    0.2749   -2.5670    0.6928 H   0  0  0  0  0  0  0  0  0  0  0  0
    1.9195   -1.1590    2.2992 C   0  0  0  0  0  0  0  0  0  0  0  0
    2.5808    0.0528    2.5614 C   0  0  0  0  0  0  0  0  0  0  0  0
    3.9741    0.1444    2.4657 C   0  0  0  0  0  0  0  0  0  0  0  0
    4.7242   -0.9707    2.1045 C   0  0  0  0  0  0  0  0  0  0  0  0
    6.4336   -0.8517    1.9825 Cl  0  0  0  0  0  0  0  0  0  0  0  0
    4.0921   -2.1816    1.8420 C   0  0  0  0  0  0  0  0  0  0  0  0
    2.7000   -2.2764    1.9398 C   0  0  0  0  0  0  0  0  0  0  0  0
   -2.2599   -2.8985    0.0799 C   0  0  0  0  0  0  0  0  0  0  0  0
   -1.4853   -4.1744   -0.0893 C   0  0  0  0  0  0  0  0  0  0  0  0
   -1.4381   -5.2203    0.8120 C   0  0  0  0  0  0  0  0  0  0  0  0
   -0.6137   -6.1888    0.3046 N   0  0  0  0  0  0  0  0  0  0  0  0
   -0.1026   -5.7879   -0.9078 C   0  0  0  0  0  0  0  0  0  0  0  0
    0.7826   -6.4460   -1.7691 C   0  0  0  0  0  0  0  0  0  0  0  0
    1.1232   -5.8036   -2.9620 C   0  0  0  0  0  0  0  0  0  0  0  0
    0.5947   -4.5553   -3.2803 C   0  0  0  0  0  0  0  0  0  0  0  0
   -0.2899   -3.9095   -2.4073 C   0  0  0  0  0  0  0  0  0  0  0  0
   -0.6447   -4.5336   -1.1927 C   0  0  0  0  0  0  0  0  0  0  0  0
   -0.4066   -7.0737    0.7519 H   0  0  0  0  0  0  0  0  0  0  0  0
  1  2  1  0
  2  3  1  0
  3  4  2  0
  4  5  1  0
  5  6  1  0
  6  7  1  0
  7 13  1  0
 13 14  2  0
 14 15  1  0
 15 16  2  0
 16 17  1  0
 16 18  1  0
 18 19  2  0
  7  8  1  0
  8  9  1  0
  9 10  1  0
  8 11  1  0
 11 20  1  0
 20 21  1  0
 21 22  2  0
 22 23  1  0
 23 24  1  0
 24 25  2  0
 25 26  1  0
 26 27  2  0
 27 28  1  0
 28 29  2  0
 10  2  1  0
 29 21  1  0
 11  4  1  0
 29 24  1  0
 19 13  1  0
  8 12  1  0
 23 30  1  0
M  CHG 1   8   1
M  END
> <input_smiles>
CN1CCN(C2CC3=CNC4=CC=CC=C34)C(CCC2=C1)c5ccc(Cl)cc5

> <prot_variant_index>
2

> <minimizedAffinity>
0.00000

> <CNNscore>
0.2804202437

> <CNNaffinity>
3.5213642120

> <CNN_VS>
0.9874618053

> <CNNaffinity_variance>
1.0416181087

$$$$
LSD__p2


 30 34  0  0  0  0  0  0  0  0999 V2000
   -3.3753    1.2531   -3.1573 C   0  0  0  0  0  0  0  0  0  0  0  0
   -2.6836    0.4821   -2.1116 N   0  0  0  0  0  0  0  0  0  0  0  0
   -3.2743    0.3204   -0.8681 C   0  0  0  0  0  0  0  0  0  0  0  0
   -2.8589   -0.5611    0.0506 C   0  0  0  0  0  0  0  0  0  0  0  0
   -2.9516   -0.2792    1.5205 C   0  0  0  0  0  0  0  0  0  0  0  0
   -1.5576    0.2506    1.9364 C   0  0  0  0  0  0  0  0  0  0  0  0
   -0.3448   -0.5757    1.3876 C   0  0  0  0  0  0  0  0  0  0  0  0
   -0.5268   -0.9149   -0.1147 N   0  0  0  0  0  0  0  0  0  0  0  0
   -0.3399    0.3088   -1.0368 C   0  0  0  0  0  0  0  0  0  0  0  0
   -1.2101    0.3613   -2.3269 C   0  0  0  0  0  0  0  0  0  0  0  0
   -1.8552   -1.6291   -0.2443 C   0  0  0  0  0  0  0  0  0  0  0  0
    0.2011   -1.5929   -0.3565 H   0  0  0  0  0  0  0  0  0  0  0  0
    1.0469   -0.0268    1.6682 C   0  0  0  0  0  0  0  0  0  0  0  0
    2.2233   -0.7516    1.4129 C   0  0  0  0  0  0  0  0  0  0  0  0
    3.4784   -0.2109    1.7150 C   0  0  0  0  0  0  0  0  0  0  0  0
    3.5750    1.0580    2.2781 C   0  0  0  0  0  0  0  0  0  0  0  0
    5.1174    1.7149    2.6527 Cl  0  0  0  0  0  0  0  0  0  0  0  0
    2.4246    1.7954    2.5381 C   0  0  0  0  0  0  0  0  0  0  0  0
    1.1693    1.2583    2.2344 C   0  0  0  0  0  0  0  0  0  0  0  0
   -1.9737   -2.4943   -1.5265 C   0  0  0  0  0  0  0  0  0  0  0  0
   -0.8519   -3.4892   -1.6183 C   0  0  0  0  0  0  0  0  0  0  0  0
   -0.6812   -4.5961   -0.8094 C   0  0  0  0  0  0  0  0  0  0  0  0
    0.4641   -5.2393   -1.1963 N   0  0  0  0  0  0  0  0  0  0  0  0
    1.0598   -4.5619   -2.2346 C   0  0  0  0  0  0  0  0  0  0  0  0
    2.2411   -4.8455   -2.9293 C   0  0  0  0  0  0  0  0  0  0  0  0
    2.6044   -3.9843   -3.9676 C   0  0  0  0  0  0  0  0  0  0  0  0
    1.8138   -2.8870   -4.2988 C   0  0  0  0  0  0  0  0  0  0  0  0
    0.6344   -2.6165   -3.5935 C   0  0  0  0  0  0  0  0  0  0  0  0
    0.2484   -3.4667   -2.5357 C   0  0  0  0  0  0  0  0  0  0  0  0
    0.8252   -6.0904   -0.7824 H   0  0  0  0  0  0  0  0  0  0  0  0
  1  2  1  0
  2  3  1  0
  3  4  2  0
  4  5  1  0
  5  6  1  0
  6  7  1  0
  7 13  1  0
 13 14  2  0
 14 15  1  0
 15 16  2  0
 16 17  1  0
 16 18  1  0
 18 19  2  0
  7  8  1  0
  8  9  1  0
  9 10  1  0
  8 11  1  0
 11 20  1  0
 20 21  1  0
 21 22  2  0
 22 23  1  0
 23 24  1  0
 24 25  2  0
 25 26  1  0
 26 27  2  0
 27 28  1  0
 28 29  2  0
 10  2  1  0
 29 21  1  0
 11  4  1  0
 29 24  1  0
 19 13  1  0
  8 12  1  0
 23 30  1  0
M  CHG 1   8   1
M  END
> <input_smiles>
CN1CCN(C2CC3=CNC4=CC=CC=C34)C(CCC2=C1)c5ccc(Cl)cc5

> <prot_variant_index>
2

> <minimizedAffinity>
0.00000

> <CNNscore>
0.2800900340

> <CNNaffinity>
3.4290263653

> <CNN_VS>
0.9604361057

> <CNNaffinity_variance>
1.4111713171

$$$$
LSD__p2


 30 34  0  0  0  0  0  0  0  0999 V2000
   -6.0570    0.5533   -4.4161 C   0  0  0  0  0  0  0  0  0  0  0  0
   -5.4232    1.7375   -3.8142 N   0  0  0  0  0  0  0  0  0  0  0  0
   -5.5865    2.9821   -4.4023 C   0  0  0  0  0  0  0  0  0  0  0  0
   -5.2752    4.1400   -3.8058 C   0  0  0  0  0  0  0  0  0  0  0  0
   -4.7619    5.3183   -4.5785 C   0  0  0  0  0  0  0  0  0  0  0  0
   -3.2199    5.2654   -4.4521 C   0  0  0  0  0  0  0  0  0  0  0  0
   -2.6831    5.0037   -3.0036 C   0  0  0  0  0  0  0  0  0  0  0  0
   -3.4654    3.8580   -2.3105 N   0  0  0  0  0  0  0  0  0  0  0  0
   -3.1259    2.4642   -2.8803 C   0  0  0  0  0  0  0  0  0  0  0  0
   -4.2757    1.4149   -2.9136 C   0  0  0  0  0  0  0  0  0  0  0  0
   -4.9298    4.2388   -2.3547 C   0  0  0  0  0  0  0  0  0  0  0  0
   -3.1861    3.8610   -1.3255 H   0  0  0  0  0  0  0  0  0  0  0  0
   -1.1797    4.8231   -2.8475 C   0  0  0  0  0  0  0  0  0  0  0  0
   -0.5381    4.7780   -1.5983 C   0  0  0  0  0  0  0  0  0  0  0  0
    0.8517    4.6376   -1.5107 C   0  0  0  0  0  0  0  0  0  0  0  0
    1.6184    4.5434   -2.6682 C   0  0  0  0  0  0  0  0  0  0  0  0
    3.3245    4.3773   -2.5557 Cl  0  0  0  0  0  0  0  0  0  0  0  0
    1.0056    4.5837   -3.9163 C   0  0  0  0  0  0  0  0  0  0  0  0
   -0.3834    4.7210   -4.0063 C   0  0  0  0  0  0  0  0  0  0  0  0
   -5.7922    3.5186   -1.2850 C   0  0  0  0  0  0  0  0  0  0  0  0
   -5.2486    3.7458    0.0968 C   0  0  0  0  0  0  0  0  0  0  0  0
   -5.2665    4.9411    0.7892 C   0  0  0  0  0  0  0  0  0  0  0  0
   -4.6630    4.7447    2.0026 N   0  0  0  0  0  0  0  0  0  0  0  0
   -4.2312    3.4434    2.1114 C   0  0  0  0  0  0  0  0  0  0  0  0
   -3.5583    2.8070    3.1606 C   0  0  0  0  0  0  0  0  0  0  0  0
   -3.2542    1.4522    3.0075 C   0  0  0  0  0  0  0  0  0  0  0  0
   -3.6138    0.7626    1.8524 C   0  0  0  0  0  0  0  0  0  0  0  0
   -4.2867    1.4141    0.8110 C   0  0  0  0  0  0  0  0  0  0  0  0
   -4.5995    2.7841    0.9375 C   0  0  0  0  0  0  0  0  0  0  0  0
   -4.5484    5.4507    2.7198 H   0  0  0  0  0  0  0  0  0  0  0  0
  1  2  1  0
  2  3  1  0
  3  4  2  0
  4  5  1  0
  5  6  1  0
  6  7  1  0
  7 13  1  0
 13 14  2  0
 14 15  1  0
 15 16  2  0
 16 17  1  0
 16 18  1  0
 18 19  2  0
  7  8  1  0
  8  9  1  0
  9 10  1  0
  8 11  1  0
 11 20  1  0
 20 21  1  0
 21 22  2  0
 22 23  1  0
 23 24  1  0
 24 25  2  0
 25 26  1  0
 26 27  2  0
 27 28  1  0
 28 29  2  0
 10  2  1  0
 29 21  1  0
 11  4  1  0
 29 24  1  0
 19 13  1  0
  8 12  1  0
 23 30  1  0
M  CHG 1   8   1
M  END
> <input_smiles>
CN1CCN(C2CC3=CNC4=CC=CC=C34)C(CCC2=C1)c5ccc(Cl)cc5

> <prot_variant_index>
2

> <minimizedAffinity>
0.00000

> <CNNscore>
0.2770715058

> <CNNaffinity>
3.4902412891

> <CNN_VS>
0.9670463800

> <CNNaffinity_variance>
0.9930031896

$$$$
LSD__p2


 30 34  0  0  0  0  0  0  0  0999 V2000
   -4.7494    5.3169   -4.1738 C   0  0  0  0  0  0  0  0  0  0  0  0
   -4.4792    3.9688   -3.6485 N   0  0  0  0  0  0  0  0  0  0  0  0
   -4.9013    2.8544   -4.3565 C   0  0  0  0  0  0  0  0  0  0  0  0
   -4.4890    1.6054   -4.1044 C   0  0  0  0  0  0  0  0  0  0  0  0
   -5.3859    0.4191   -4.2971 C   0  0  0  0  0  0  0  0  0  0  0  0
   -5.9798    0.1091   -2.9014 C   0  0  0  0  0  0  0  0  0  0  0  0
   -4.9429    0.1055   -1.7269 C   0  0  0  0  0  0  0  0  0  0  0  0
   -3.9929    1.3285   -1.8091 N   0  0  0  0  0  0  0  0  0  0  0  0
   -4.6841    2.6562   -1.4319 C   0  0  0  0  0  0  0  0  0  0  0  0
   -4.2099    3.9372   -2.1792 C   0  0  0  0  0  0  0  0  0  0  0  0
   -3.3546    1.2954   -3.1814 C   0  0  0  0  0  0  0  0  0  0  0  0
   -3.2449    1.1701   -1.1284 H   0  0  0  0  0  0  0  0  0  0  0  0
   -5.4953   -0.0748   -0.3200 C   0  0  0  0  0  0  0  0  0  0  0  0
   -6.8640    0.0167   -0.0157 C   0  0  0  0  0  0  0  0  0  0  0  0
   -7.3173   -0.1301    1.3003 C   0  0  0  0  0  0  0  0  0  0  0  0
   -6.4105   -0.3669    2.3289 C   0  0  0  0  0  0  0  0  0  0  0  0
   -6.9711   -0.5404    3.9435 Cl  0  0  0  0  0  0  0  0  0  0  0  0
   -5.0508   -0.4635    2.0520 C   0  0  0  0  0  0  0  0  0  0  0  0
   -4.5957   -0.3200    0.7373 C   0  0  0  0  0  0  0  0  0  0  0  0
   -2.0244    2.0889   -3.2678 C   0  0  0  0  0  0  0  0  0  0  0  0
   -1.1079    1.7422   -2.1292 C   0  0  0  0  0  0  0  0  0  0  0  0
   -0.7432    2.5840   -1.0962 C   0  0  0  0  0  0  0  0  0  0  0  0
    0.1150    1.9066   -0.2717 N   0  0  0  0  0  0  0  0  0  0  0  0
    0.3356    0.6386   -0.7568 C   0  0  0  0  0  0  0  0  0  0  0  0
    1.1430   -0.3866   -0.2513 C   0  0  0  0  0  0  0  0  0  0  0  0
    1.1648   -1.5971   -0.9483 C   0  0  0  0  0  0  0  0  0  0  0  0
    0.4050   -1.7740   -2.1017 C   0  0  0  0  0  0  0  0  0  0  0  0
   -0.3978   -0.7379   -2.5951 C   0  0  0  0  0  0  0  0  0  0  0  0
   -0.4322    0.4972   -1.9138 C   0  0  0  0  0  0  0  0  0  0  0  0
    0.5301    2.2793    0.5738 H   0  0  0  0  0  0  0  0  0  0  0  0
  1  2  1  0
  2  3  1  0
  3  4  2  0
  4  5  1  0
  5  6  1  0
  6  7  1  0
  7 13  1  0
 13 14  2  0
 14 15  1  0
 15 16  2  0
 16 17  1  0
 16 18  1  0
 18 19  2  0
  7  8  1  0
  8  9  1  0
  9 10  1  0
  8 11  1  0
 11 20  1  0
 20 21  1  0
 21 22  2  0
 22 23  1  0
 23 24  1  0
 24 25  2  0
 25 26  1  0
 26 27  2  0
 27 28  1  0
 28 29  2  0
 10  2  1  0
 29 21  1  0
 11  4  1  0
 29 24  1  0
 19 13  1  0
  8 12  1  0
 23 30  1  0
M  CHG 1   8   1
M  END
> <input_smiles>
CN1CCN(C2CC3=CNC4=CC=CC=C34)C(CCC2=C1)c5ccc(Cl)cc5

> <prot_variant_index>
2

> <minimizedAffinity>
0.00000

> <CNNscore>
0.2766203582

> <CNNaffinity>
3.4067833424

> <CNN_VS>
0.9423856139

> <CNNaffinity_variance>
1.2742141485

$$$$
LSD__p2


 30 34  0  0  0  0  0  0  0  0999 V2000
   -2.4554    6.2235   -2.3173 C   0  0  0  0  0  0  0  0  0  0  0  0
   -2.1691    4.8306   -1.9377 N   0  0  0  0  0  0  0  0  0  0  0  0
   -2.3081    3.8174   -2.8735 C   0  0  0  0  0  0  0  0  0  0  0  0
   -1.8342    2.5755   -2.7100 C   0  0  0  0  0  0  0  0  0  0  0  0
   -2.5394    1.3765   -3.2703 C   0  0  0  0  0  0  0  0  0  0  0  0
   -3.3897    0.8071   -2.1087 C   0  0  0  0  0  0  0  0  0  0  0  0
   -2.6412    0.6869   -0.7376 C   0  0  0  0  0  0  0  0  0  0  0  0
   -1.8280    1.9697   -0.4244 N   0  0  0  0  0  0  0  0  0  0  0  0
   -2.7185    3.1693   -0.0361 C   0  0  0  0  0  0  0  0  0  0  0  0
   -2.2270    4.5829   -0.4655 C   0  0  0  0  0  0  0  0  0  0  0  0
   -0.9042    2.2005   -1.6012 C   0  0  0  0  0  0  0  0  0  0  0  0
   -1.2353    1.7563    0.3826 H   0  0  0  0  0  0  0  0  0  0  0  0
   -3.4672    0.2463    0.4627 C   0  0  0  0  0  0  0  0  0  0  0  0
   -4.8714    0.1982    0.4516 C   0  0  0  0  0  0  0  0  0  0  0  0
   -5.5846   -0.1883    1.5921 C   0  0  0  0  0  0  0  0  0  0  0  0
   -4.9059   -0.5285    2.7583 C   0  0  0  0  0  0  0  0  0  0  0  0
   -5.7859   -0.9964    4.1574 Cl  0  0  0  0  0  0  0  0  0  0  0  0
   -3.5158   -0.4903    2.7930 C   0  0  0  0  0  0  0  0  0  0  0  0
   -2.8008   -0.1072    1.6536 C   0  0  0  0  0  0  0  0  0  0  0  0
    0.3232    3.0873   -1.2638 C   0  0  0  0  0  0  0  0  0  0  0  0
    1.3273    3.0761   -2.3810 C   0  0  0  0  0  0  0  0  0  0  0  0
    2.1894    2.0407   -2.6866 C   0  0  0  0  0  0  0  0  0  0  0  0
    2.9550    2.4198   -3.7568 N   0  0  0  0  0  0  0  0  0  0  0  0
    2.6232    3.6961   -4.1478 C   0  0  0  0  0  0  0  0  0  0  0  0
    3.1503    4.4837   -5.1776 C   0  0  0  0  0  0  0  0  0  0  0  0
    2.6035    5.7555   -5.3648 C   0  0  0  0  0  0  0  0  0  0  0  0
    1.5680    6.2169   -4.5563 C   0  0  0  0  0  0  0  0  0  0  0  0
    1.0516    5.4165   -3.5294 C   0  0  0  0  0  0  0  0  0  0  0  0
    1.5910    4.1305   -3.3146 C   0  0  0  0  0  0  0  0  0  0  0  0
    3.6639    1.8483   -4.2004 H   0  0  0  0  0  0  0  0  0  0  0  0
  1  2  1  0
  2  3  1  0
  3  4  2  0
  4  5  1  0
  5  6  1  0
  6  7  1  0
  7 13  1  0
 13 14  2  0
 14 15  1  0
 15 16  2  0
 16 17  1  0
 16 18  1  0
 18 19  2  0
  7  8  1  0
  8  9  1  0
  9 10  1  0
  8 11  1  0
 11 20  1  0
 20 21  1  0
 21 22  2  0
 22 23  1  0
 23 24  1  0
 24 25  2  0
 25 26  1  0
 26 27  2  0
 27 28  1  0
 28 29  2  0
 10  2  1  0
 29 21  1  0
 11  4  1  0
 29 24  1  0
 19 13  1  0
  8 12  1  0
 23 30  1  0
M  CHG 1   8   1
M  END
> <input_smiles>
CN1CCN(C2CC3=CNC4=CC=CC=C34)C(CCC2=C1)c5ccc(Cl)cc5

> <prot_variant_index>
2

> <minimizedAffinity>
0.00000

> <CNNscore>
0.2739758790

> <CNNaffinity>
3.4069359303

> <CNN_VS>
0.9334182739

> <CNNaffinity_variance>
0.9660356641

$$$$
LSD__p3


 31 35  0  0  0  0  0  0  0  0999 V2000
    1.8024   -3.4387   -1.3055 C   0  0  0  0  0  0  0  0  0  0  0  0
    1.2403   -2.4543   -0.2776 N   0  0  0  0  0  0  0  0  0  0  0  0
    0.2502   -1.6288   -0.9083 C   0  0  0  0  0  0  0  0  0  0  0  0
   -0.3478   -0.6472   -0.2133 C   0  0  0  0  0  0  0  0  0  0  0  0
   -0.9214    0.5510   -0.9463 C   0  0  0  0  0  0  0  0  0  0  0  0
    0.1266    1.6908   -0.8655 C   0  0  0  0  0  0  0  0  0  0  0  0
    0.7600    1.9036    0.5489 C   0  0  0  0  0  0  0  0  0  0  0  0
    1.1304    0.5209    1.1708 N   0  0  0  0  0  0  0  0  0  0  0  0
    2.3452   -0.1381    0.5013 C   0  0  0  0  0  0  0  0  0  0  0  0
    2.3864   -1.7008    0.4485 C   0  0  0  0  0  0  0  0  0  0  0  0
   -0.1360   -0.2953    1.2292 C   0  0  0  0  0  0  0  0  0  0  0  0
    0.7877   -3.0964    0.3917 H   0  0  0  0  0  0  0  0  0  0  0  0
    1.4012    0.7460    2.1421 H   0  0  0  0  0  0  0  0  0  0  0  0
    1.9144    2.8809    0.6685 C   0  0  0  0  0  0  0  0  0  0  0  0
    2.5643    3.4478   -0.4395 C   0  0  0  0  0  0  0  0  0  0  0  0
    3.6479    4.3166   -0.2649 C   0  0  0  0  0  0  0  0  0  0  0  0
    4.0932    4.6322    1.0153 C   0  0  0  0  0  0  0  0  0  0  0  0
    5.4302    5.6890    1.2211 Cl  0  0  0  0  0  0  0  0  0  0  0  0
    3.4578    4.0914    2.1274 C   0  0  0  0  0  0  0  0  0  0  0  0
    2.3754    3.2237    1.9571 C   0  0  0  0  0  0  0  0  0  0  0  0
   -0.1829   -1.3438    2.3733 C   0  0  0  0  0  0  0  0  0  0  0  0
    0.1280   -0.7569    3.7179 C   0  0  0  0  0  0  0  0  0  0  0  0
   -0.7347   -0.0219    4.5090 C   0  0  0  0  0  0  0  0  0  0  0  0
   -0.0892    0.2924    5.6786 N   0  0  0  0  0  0  0  0  0  0  0  0
    1.1663   -0.2666    5.6842 C   0  0  0  0  0  0  0  0  0  0  0  0
    2.1483   -0.2425    6.6804 C   0  0  0  0  0  0  0  0  0  0  0  0
    3.3728   -0.8513    6.3987 C   0  0  0  0  0  0  0  0  0  0  0  0
    3.6095   -1.4439    5.1625 C   0  0  0  0  0  0  0  0  0  0  0  0
    2.6167   -1.4584    4.1757 C   0  0  0  0  0  0  0  0  0  0  0  0
    1.3604   -0.8739    4.4444 C   0  0  0  0  0  0  0  0  0  0  0  0
   -0.4626    0.8628    6.4294 H   0  0  0  0  0  0  0  0  0  0  0  0
  1  2  1  0
  2  3  1  0
  3  4  2  0
  4  5  1  0
  5  6  1  0
  6  7  1  0
  7 14  1  0
 14 15  2  0
 15 16  1  0
 16 17  2  0
 17 18  1  0
 17 19  1  0
 19 20  2  0
  7  8  1  0
  8  9  1  0
  9 10  1  0
  8 11  1  0
 11 21  1  0
 21 22  1  0
 22 23  2  0
 23 24  1  0
 24 25  1  0
 25 26  2  0
 26 27  1  0
 27 28  2  0
 28 29  1  0
 29 30  2  0
 10  2  1  0
 30 22  1  0
 11  4  1  0
 30 25  1  0
 20 14  1  0
  2 12  1  0
  8 13  1  0
 24 31  1  0
M  CHG 1   2   1
M  CHG 1   8   1
M  END
> <input_smiles>
CN1CCN(C2CC3=CNC4=CC=CC=C34)C(CCC2=C1)c5ccc(Cl)cc5

> <prot_variant_index>
3

> <minimizedAffinity>
0.00000

> <CNNscore>
0.3162240088

> <CNNaffinity>
3.2975921631

> <CNN_VS>
1.0427777767

> <CNNaffinity_variance>
0.7433583736

$$$$
LSD__p3


 31 35  0  0  0  0  0  0  0  0999 V2000
   -4.5330    0.9024    0.3583 C   0  0  0  0  0  0  0  0  0  0  0  0
   -4.0478    1.6253    1.6167 N   0  0  0  0  0  0  0  0  0  0  0  0
   -5.0218    2.6067    2.0013 C   0  0  0  0  0  0  0  0  0  0  0  0
   -4.7884    3.4081    3.0536 C   0  0  0  0  0  0  0  0  0  0  0  0
   -5.4654    4.7639    3.1307 C   0  0  0  0  0  0  0  0  0  0  0  0
   -4.4503    5.8198    2.6223 C   0  0  0  0  0  0  0  0  0  0  0  0
   -3.0009    5.6666    3.1904 C   0  0  0  0  0  0  0  0  0  0  0  0
   -2.5786    4.1647    3.1512 N   0  0  0  0  0  0  0  0  0  0  0  0
   -2.2955    3.6522    1.7315 C   0  0  0  0  0  0  0  0  0  0  0  0
   -2.5987    2.1479    1.4285 C   0  0  0  0  0  0  0  0  0  0  0  0
   -3.5928    3.3952    3.9591 C   0  0  0  0  0  0  0  0  0  0  0  0
   -4.0369    0.8538    2.3023 H   0  0  0  0  0  0  0  0  0  0  0  0
   -1.6848    4.1407    3.6689 H   0  0  0  0  0  0  0  0  0  0  0  0
   -1.9149    6.5527    2.6094 C   0  0  0  0  0  0  0  0  0  0  0  0
   -2.0913    7.3362    1.4577 C   0  0  0  0  0  0  0  0  0  0  0  0
   -1.0388    8.1064    0.9494 C   0  0  0  0  0  0  0  0  0  0  0  0
    0.1994    8.1065    1.5847 C   0  0  0  0  0  0  0  0  0  0  0  0
    1.4889    9.0442    0.9486 Cl  0  0  0  0  0  0  0  0  0  0  0  0
    0.3937    7.3469    2.7329 C   0  0  0  0  0  0  0  0  0  0  0  0
   -0.6549    6.5768    3.2437 C   0  0  0  0  0  0  0  0  0  0  0  0
   -3.0491    2.1033    4.6268 C   0  0  0  0  0  0  0  0  0  0  0  0
   -3.9669    1.5584    5.6802 C   0  0  0  0  0  0  0  0  0  0  0  0
   -4.0110    1.9449    7.0065 C   0  0  0  0  0  0  0  0  0  0  0  0
   -5.0144    1.2457    7.6290 N   0  0  0  0  0  0  0  0  0  0  0  0
   -5.6586    0.4425    6.7186 C   0  0  0  0  0  0  0  0  0  0  0  0
   -6.7581   -0.4039    6.8977 C   0  0  0  0  0  0  0  0  0  0  0  0
   -7.1801   -1.1592    5.8019 C   0  0  0  0  0  0  0  0  0  0  0  0
   -6.5159   -1.0830    4.5819 C   0  0  0  0  0  0  0  0  0  0  0  0
   -5.4163   -0.2320    4.4194 C   0  0  0  0  0  0  0  0  0  0  0  0
   -4.9859    0.5629    5.5034 C   0  0  0  0  0  0  0  0  0  0  0  0
   -5.2487    1.2918    8.6146 H   0  0  0  0  0  0  0  0  0  0  0  0
  1  2  1  0
  2  3  1  0
  3  4  2  0
  4  5  1  0
  5  6  1  0
  6  7  1  0
  7 14  1  0
 14 15  2  0
 15 16  1  0
 16 17  2  0
 17 18  1  0
 17 19  1  0
 19 20  2  0
  7  8  1  0
  8  9  1  0
  9 10  1  0
  8 11  1  0
 11 21  1  0
 21 22  1  0
 22 23  2  0
 23 24  1  0
 24 25  1  0
 25 26  2  0
 26 27  1  0
 27 28  2  0
 28 29  1  0
 29 30  2  0
 10  2  1  0
 30 22  1  0
 11  4  1  0
 30 25  1  0
 20 14  1  0
  2 12  1  0
  8 13  1  0
 24 31  1  0
M  CHG 1   2   1
M  CHG 1   8   1
M  END
> <input_smiles>
CN1CCN(C2CC3=CNC4=CC=CC=C34)C(CCC2=C1)c5ccc(Cl)cc5

> <prot_variant_index>
3

> <minimizedAffinity>
0.00000

> <CNNscore>
0.3138669133

> <CNNaffinity>
3.2226450443

> <CNN_VS>
1.0114816427

> <CNNaffinity_variance>
0.5563521981

$$$$
LSD__p3


 31 35  0  0  0  0  0  0  0  0999 V2000
    2.0718   -2.8275   -2.2341 C   0  0  0  0  0  0  0  0  0  0  0  0
    1.5209   -1.8714   -1.1740 N   0  0  0  0  0  0  0  0  0  0  0  0
    0.5219   -1.0315   -1.7706 C   0  0  0  0  0  0  0  0  0  0  0  0
   -0.0691   -0.0696   -1.0428 C   0  0  0  0  0  0  0  0  0  0  0  0
   -0.6535    1.1464   -1.7370 C   0  0  0  0  0  0  0  0  0  0  0  0
    0.3937    2.2855   -1.6391 C   0  0  0  0  0  0  0  0  0  0  0  0
    1.0440    2.4623   -0.2274 C   0  0  0  0  0  0  0  0  0  0  0  0
    1.4241    1.0645    0.3534 N   0  0  0  0  0  0  0  0  0  0  0  0
    2.6316    0.4255   -0.3479 C   0  0  0  0  0  0  0  0  0  0  0  0
    2.6746   -1.1352   -0.4423 C   0  0  0  0  0  0  0  0  0  0  0  0
    0.1598    0.2447    0.4058 C   0  0  0  0  0  0  0  0  0  0  0  0
    1.0775   -2.5317   -0.5162 H   0  0  0  0  0  0  0  0  0  0  0  0
    1.7064    1.2645    1.3269 H   0  0  0  0  0  0  0  0  0  0  0  0
    2.1982    3.4384   -0.0963 C   0  0  0  0  0  0  0  0  0  0  0  0
    2.7599    3.8092    1.1359 C   0  0  0  0  0  0  0  0  0  0  0  0
    3.8011    4.7430    1.1944 C   0  0  0  0  0  0  0  0  0  0  0  0
    4.2957    5.3146    0.0259 C   0  0  0  0  0  0  0  0  0  0  0  0
    5.5646    6.4679    0.1066 Cl  0  0  0  0  0  0  0  0  0  0  0  0
    3.7623    4.9540   -1.2063 C   0  0  0  0  0  0  0  0  0  0  0  0
    2.7228    4.0218   -1.2689 C   0  0  0  0  0  0  0  0  0  0  0  0
    0.1284   -0.8336    1.5223 C   0  0  0  0  0  0  0  0  0  0  0  0
   -0.6169   -0.3882    2.7451 C   0  0  0  0  0  0  0  0  0  0  0  0
   -1.1983    0.8500    2.9431 C   0  0  0  0  0  0  0  0  0  0  0  0
   -1.8217    0.8460    4.1656 N   0  0  0  0  0  0  0  0  0  0  0  0
   -1.6973   -0.3919    4.7495 C   0  0  0  0  0  0  0  0  0  0  0  0
   -2.2076   -0.8592    5.9655 C   0  0  0  0  0  0  0  0  0  0  0  0
   -1.8778   -2.1603    6.3498 C   0  0  0  0  0  0  0  0  0  0  0  0
   -1.0552   -2.9538    5.5567 C   0  0  0  0  0  0  0  0  0  0  0  0
   -0.5515   -2.4708    4.3432 C   0  0  0  0  0  0  0  0  0  0  0  0
   -0.8917   -1.1687    3.9180 C   0  0  0  0  0  0  0  0  0  0  0  0
   -2.2946    1.6339    4.5949 H   0  0  0  0  0  0  0  0  0  0  0  0
  1  2  1  0
  2  3  1  0
  3  4  2  0
  4  5  1  0
  5  6  1  0
  6  7  1  0
  7 14  1  0
 14 15  2  0
 15 16  1  0
 16 17  2  0
 17 18  1  0
 17 19  1  0
 19 20  2  0
  7  8  1  0
  8  9  1  0
  9 10  1  0
  8 11  1  0
 11 21  1  0
 21 22  1  0
 22 23  2  0
 23 24  1  0
 24 25  1  0
 25 26  2  0
 26 27  1  0
 27 28  2  0
 28 29  1  0
 29 30  2  0
 10  2  1  0
 30 22  1  0
 11  4  1  0
 30 25  1  0
 20 14  1  0
  2 12  1  0
  8 13  1  0
 24 31  1  0
M  CHG 1   2   1
M  CHG 1   8   1
M  END
> <input_smiles>
CN1CCN(C2CC3=CNC4=CC=CC=C34)C(CCC2=C1)c5ccc(Cl)cc5

> <prot_variant_index>
3

> <minimizedAffinity>
0.00000

> <CNNscore>
0.3061740696

> <CNNaffinity>
3.2361059189

> <CNN_VS>
0.9908117056

> <CNNaffinity_variance>
0.6265850663

$$$$
LSD__p3


 31 35  0  0  0  0  0  0  0  0999 V2000
    0.7689   -3.4854   -0.9651 C   0  0  0  0  0  0  0  0  0  0  0  0
    0.1452   -2.5452    0.0687 N   0  0  0  0  0  0  0  0  0  0  0  0
   -0.9963   -1.8975   -0.5117 C   0  0  0  0  0  0  0  0  0  0  0  0
   -1.6787   -0.9803    0.1933 C   0  0  0  0  0  0  0  0  0  0  0  0
   -2.4705    0.0904   -0.5340 C   0  0  0  0  0  0  0  0  0  0  0  0
   -1.5952    1.3696   -0.5734 C   0  0  0  0  0  0  0  0  0  0  0  0
   -0.8998    1.7334    0.7798 C   0  0  0  0  0  0  0  0  0  0  0  0
   -0.2900    0.4465    1.4183 N   0  0  0  0  0  0  0  0  0  0  0  0
    0.9564   -0.0633    0.6802 C   0  0  0  0  0  0  0  0  0  0  0  0
    1.2193   -1.6052    0.6780 C   0  0  0  0  0  0  0  0  0  0  0  0
   -1.4176   -0.5373    1.6022 C   0  0  0  0  0  0  0  0  0  0  0  0
   -0.1608   -3.2142    0.7926 H   0  0  0  0  0  0  0  0  0  0  0  0
    0.0141    0.7512    2.3576 H   0  0  0  0  0  0  0  0  0  0  0  0
    0.1067    2.8688    0.7764 C   0  0  0  0  0  0  0  0  0  0  0  0
    0.6023    3.4579   -0.3978 C   0  0  0  0  0  0  0  0  0  0  0  0
    1.5577    4.4791   -0.3365 C   0  0  0  0  0  0  0  0  0  0  0  0
    2.0268    4.9263    0.8951 C   0  0  0  0  0  0  0  0  0  0  0  0
    3.2073    6.1707    0.9619 Cl  0  0  0  0  0  0  0  0  0  0  0  0
    1.5420    4.3652    2.0711 C   0  0  0  0  0  0  0  0  0  0  0  0
    0.5878    3.3455    2.0140 C   0  0  0  0  0  0  0  0  0  0  0  0
   -1.2307   -1.5293    2.7818 C   0  0  0  0  0  0  0  0  0  0  0  0
   -2.4945   -2.2496    3.1464 C   0  0  0  0  0  0  0  0  0  0  0  0
   -3.4818   -1.7898    3.9973 C   0  0  0  0  0  0  0  0  0  0  0  0
   -4.4918   -2.7184    4.0319 N   0  0  0  0  0  0  0  0  0  0  0  0
   -4.2013   -3.7565    3.1794 C   0  0  0  0  0  0  0  0  0  0  0  0
   -4.9577   -4.8911    2.8662 C   0  0  0  0  0  0  0  0  0  0  0  0
   -4.3922   -5.8286    1.9999 C   0  0  0  0  0  0  0  0  0  0  0  0
   -3.1136   -5.6453    1.4832 C   0  0  0  0  0  0  0  0  0  0  0  0
   -2.3689   -4.5051    1.8075 C   0  0  0  0  0  0  0  0  0  0  0  0
   -2.9279   -3.5285    2.6595 C   0  0  0  0  0  0  0  0  0  0  0  0
   -5.3264   -2.6686    4.6058 H   0  0  0  0  0  0  0  0  0  0  0  0
  1  2  1  0
  2  3  1  0
  3  4  2  0
  4  5  1  0
  5  6  1  0
  6  7  1  0
  7 14  1  0
 14 15  2  0
 15 16  1  0
 16 17  2  0
 17 18  1  0
 17 19  1  0
 19 20  2  0
  7  8  1  0
  8  9  1  0
  9 10  1  0
  8 11  1  0
 11 21  1  0
 21 22  1  0
 22 23  2  0
 23 24  1  0
 24 25  1  0
 25 26  2  0
 26 27  1  0
 27 28  2  0
 28 29  1  0
 29 30  2  0
 10  2  1  0
 30 22  1  0
 11  4  1  0
 30 25  1  0
 20 14  1  0
  2 12  1  0
  8 13  1  0
 24 31  1  0
M  CHG 1   2   1
M  CHG 1   8   1
M  END
> <input_smiles>
CN1CCN(C2CC3=CNC4=CC=CC=C34)C(CCC2=C1)c5ccc(Cl)cc5

> <prot_variant_index>
3

> <minimizedAffinity>
0.00000

> <CNNscore>
0.2978746593

> <CNNaffinity>
3.0842182636

> <CNN_VS>
0.9187104702

> <CNNaffinity_variance>
0.8286824226

$$$$
LSD__p3


 31 35  0  0  0  0  0  0  0  0999 V2000
   -0.5531   -5.4138    3.2515 C   0  0  0  0  0  0  0  0  0  0  0  0
   -0.7932   -4.6401    1.9534 N   0  0  0  0  0  0  0  0  0  0  0  0
    0.0101   -5.2103    0.9097 C   0  0  0  0  0  0  0  0  0  0  0  0
    0.0078   -4.6608   -0.3159 C   0  0  0  0  0  0  0  0  0  0  0  0
    1.2079   -4.8470   -1.2255 C   0  0  0  0  0  0  0  0  0  0  0  0
    2.0853   -3.5745   -1.1038 C   0  0  0  0  0  0  0  0  0  0  0  0
    1.2977   -2.2240   -1.1604 C   0  0  0  0  0  0  0  0  0  0  0  0
    0.0217   -2.3236   -0.2673 N   0  0  0  0  0  0  0  0  0  0  0  0
    0.3331   -2.3142    1.2365 C   0  0  0  0  0  0  0  0  0  0  0  0
   -0.6229   -3.1144    2.1811 C   0  0  0  0  0  0  0  0  0  0  0  0
   -0.7939   -3.4823   -0.7826 C   0  0  0  0  0  0  0  0  0  0  0  0
   -1.7903   -4.8413    1.7788 H   0  0  0  0  0  0  0  0  0  0  0  0
   -0.5006   -1.4571   -0.4768 H   0  0  0  0  0  0  0  0  0  0  0  0
    2.0629   -0.9451   -0.8757 C   0  0  0  0  0  0  0  0  0  0  0  0
    3.3723   -0.9251   -0.3692 C   0  0  0  0  0  0  0  0  0  0  0  0
    4.0130    0.2884   -0.0931 C   0  0  0  0  0  0  0  0  0  0  0  0
    3.3574    1.4945   -0.3218 C   0  0  0  0  0  0  0  0  0  0  0  0
    4.1453    2.9784    0.0305 Cl  0  0  0  0  0  0  0  0  0  0  0  0
    2.0646    1.4990   -0.8334 C   0  0  0  0  0  0  0  0  0  0  0  0
    1.4216    0.2894   -1.1106 C   0  0  0  0  0  0  0  0  0  0  0  0
   -2.3242   -3.3541   -0.5543 C   0  0  0  0  0  0  0  0  0  0  0  0
   -3.0352   -2.7066   -1.7050 C   0  0  0  0  0  0  0  0  0  0  0  0
   -3.8607   -3.3378   -2.6163 C   0  0  0  0  0  0  0  0  0  0  0  0
   -4.3519   -2.3940   -3.4830 N   0  0  0  0  0  0  0  0  0  0  0  0
   -3.8977   -1.1478   -3.1232 C   0  0  0  0  0  0  0  0  0  0  0  0
   -4.1751    0.1004   -3.6912 C   0  0  0  0  0  0  0  0  0  0  0  0
   -3.5257    1.2148   -3.1565 C   0  0  0  0  0  0  0  0  0  0  0  0
   -2.6216    1.0811   -2.1077 C   0  0  0  0  0  0  0  0  0  0  0  0
   -2.3540   -0.1752   -1.5512 C   0  0  0  0  0  0  0  0  0  0  0  0
   -3.0174   -1.3146   -2.0550 C   0  0  0  0  0  0  0  0  0  0  0  0
   -4.9491   -2.5740   -4.2827 H   0  0  0  0  0  0  0  0  0  0  0  0
  1  2  1  0
  2  3  1  0
  3  4  2  0
  4  5  1  0
  5  6  1  0
  6  7  1  0
  7 14  1  0
 14 15  2  0
 15 16  1  0
 16 17  2  0
 17 18  1  0
 17 19  1  0
 19 20  2  0
  7  8  1  0
  8  9  1  0
  9 10  1  0
  8 11  1  0
 11 21  1  0
 21 22  1  0
 22 23  2  0
 23 24  1  0
 24 25  1  0
 25 26  2  0
 26 27  1  0
 27 28  2  0
 28 29  1  0
 29 30  2  0
 10  2  1  0
 30 22  1  0
 11  4  1  0
 30 25  1  0
 20 14  1  0
  2 12  1  0
  8 13  1  0
 24 31  1  0
M  CHG 1   2   1
M  CHG 1   8   1
M  END
> <input_smiles>
CN1CCN(C2CC3=CNC4=CC=CC=C34)C(CCC2=C1)c5ccc(Cl)cc5

> <prot_variant_index>
3

> <minimizedAffinity>
0.00000

> <CNNscore>
0.2963429093

> <CNNaffinity>
3.3599154949

> <CNN_VS>
0.9956871271

> <CNNaffinity_variance>
0.8393041492

$$$$
LSD__p3


 31 35  0  0  0  0  0  0  0  0999 V2000
   -0.9761   -5.5226    5.2496 C   0  0  0  0  0  0  0  0  0  0  0  0
   -0.2552   -4.8869    4.0589 N   0  0  0  0  0  0  0  0  0  0  0  0
    0.8629   -5.7083    3.6920 C   0  0  0  0  0  0  0  0  0  0  0  0
    1.6831   -5.3226    2.7006 C   0  0  0  0  0  0  0  0  0  0  0  0
    3.1170   -5.8180    2.6756 C   0  0  0  0  0  0  0  0  0  0  0  0
    4.0042   -4.7046    3.2897 C   0  0  0  0  0  0  0  0  0  0  0  0
    3.6959   -3.2593    2.7767 C   0  0  0  0  0  0  0  0  0  0  0  0
    2.1521   -3.0328    2.7441 N   0  0  0  0  0  0  0  0  0  0  0  0
    1.5317   -2.8889    4.1415 C   0  0  0  0  0  0  0  0  0  0  0  0
    0.0651   -3.3948    4.3406 C   0  0  0  0  0  0  0  0  0  0  0  0
    1.5646   -4.0940    1.8485 C   0  0  0  0  0  0  0  0  0  0  0  0
   -0.9836   -4.9390    3.3295 H   0  0  0  0  0  0  0  0  0  0  0  0
    2.0409   -2.1242    2.2651 H   0  0  0  0  0  0  0  0  0  0  0  0
    4.4018   -2.1008    3.4561 C   0  0  0  0  0  0  0  0  0  0  0  0
    5.1348   -2.2339    4.6462 C   0  0  0  0  0  0  0  0  0  0  0  0
    5.7344   -1.1195    5.2446 C   0  0  0  0  0  0  0  0  0  0  0  0
    5.6126    0.1385    4.6620 C   0  0  0  0  0  0  0  0  0  0  0  0
    6.3405    1.5024    5.4080 Cl  0  0  0  0  0  0  0  0  0  0  0  0
    4.9008    0.2922    3.4776 C   0  0  0  0  0  0  0  0  0  0  0  0
    4.3010   -0.8182    2.8770 C   0  0  0  0  0  0  0  0  0  0  0  0
    0.2512   -3.6850    1.1289 C   0  0  0  0  0  0  0  0  0  0  0  0
    0.1853   -2.2188    0.8202 C   0  0  0  0  0  0  0  0  0  0  0  0
   -0.7967   -1.3389    1.2343 C   0  0  0  0  0  0  0  0  0  0  0  0
   -0.4718   -0.0835    0.7851 N   0  0  0  0  0  0  0  0  0  0  0  0
    0.7325   -0.1210    0.1240 C   0  0  0  0  0  0  0  0  0  0  0  0
    1.4632    0.9211   -0.4569 C   0  0  0  0  0  0  0  0  0  0  0  0
    2.6446    0.5913   -1.1239 C   0  0  0  0  0  0  0  0  0  0  0  0
    3.0666   -0.7308   -1.2204 C   0  0  0  0  0  0  0  0  0  0  0  0
    2.3232   -1.7623   -0.6347 C   0  0  0  0  0  0  0  0  0  0  0  0
    1.1393   -1.4534    0.0688 C   0  0  0  0  0  0  0  0  0  0  0  0
   -1.0322    0.7536    0.9018 H   0  0  0  0  0  0  0  0  0  0  0  0
  1  2  1  0
  2  3  1  0
  3  4  2  0
  4  5  1  0
  5  6  1  0
  6  7  1  0
  7 14  1  0
 14 15  2  0
 15 16  1  0
 16 17  2  0
 17 18  1  0
 17 19  1  0
 19 20  2  0
  7  8  1  0
  8  9  1  0
  9 10  1  0
  8 11  1  0
 11 21  1  0
 21 22  1  0
 22 23  2  0
 23 24  1  0
 24 25  1  0
 25 26  2  0
 26 27  1  0
 27 28  2  0
 28 29  1  0
 29 30  2  0
 10  2  1  0
 30 22  1  0
 11  4  1  0
 30 25  1  0
 20 14  1  0
  2 12  1  0
  8 13  1  0
 24 31  1  0
M  CHG 1   2   1
M  CHG 1   8   1
M  END
> <input_smiles>
CN1CCN(C2CC3=CNC4=CC=CC=C34)C(CCC2=C1)c5ccc(Cl)cc5

> <prot_variant_index>
3

> <minimizedAffinity>
0.00000

> <CNNscore>
0.2956465781

> <CNNaffinity>
3.4348471165

> <CNN_VS>
1.0155007839

> <CNNaffinity_variance>
0.9591599107

$$$$
LSD__p3


 31 35  0  0  0  0  0  0  0  0999 V2000
   -1.6512   -6.4959    4.1515 C   0  0  0  0  0  0  0  0  0  0  0  0
   -1.9520   -5.7021    2.8783 N   0  0  0  0  0  0  0  0  0  0  0  0
   -0.8365   -5.8092    1.9819 C   0  0  0  0  0  0  0  0  0  0  0  0
   -0.8478   -5.1466    0.8135 C   0  0  0  0  0  0  0  0  0  0  0  0
    0.4639   -4.7732    0.1484 C   0  0  0  0  0  0  0  0  0  0  0  0
    0.7664   -3.2970    0.5135 C   0  0  0  0  0  0  0  0  0  0  0  0
   -0.4508   -2.3234    0.3813 C   0  0  0  0  0  0  0  0  0  0  0  0
   -1.7216   -2.9863    0.9988 N   0  0  0  0  0  0  0  0  0  0  0  0
   -1.6833   -3.0563    2.5324 C   0  0  0  0  0  0  0  0  0  0  0  0
   -2.4070   -4.2589    3.2228 C   0  0  0  0  0  0  0  0  0  0  0  0
   -1.9473   -4.2852    0.2672 C   0  0  0  0  0  0  0  0  0  0  0  0
   -2.7581   -6.2238    2.4999 H   0  0  0  0  0  0  0  0  0  0  0  0
   -2.4903   -2.3458    0.7411 H   0  0  0  0  0  0  0  0  0  0  0  0
   -0.2792   -0.9022    0.8842 C   0  0  0  0  0  0  0  0  0  0  0  0
   -1.2297    0.1103    0.6773 C   0  0  0  0  0  0  0  0  0  0  0  0
   -0.9975    1.4125    1.1352 C   0  0  0  0  0  0  0  0  0  0  0  0
    0.1824    1.7189    1.8066 C   0  0  0  0  0  0  0  0  0  0  0  0
    0.4653    3.3209    2.3545 Cl  0  0  0  0  0  0  0  0  0  0  0  0
    1.1328    0.7297    2.0324 C   0  0  0  0  0  0  0  0  0  0  0  0
    0.9045   -0.5718    1.5771 C   0  0  0  0  0  0  0  0  0  0  0  0
   -3.4287   -4.7445    0.1972 C   0  0  0  0  0  0  0  0  0  0  0  0
   -3.5912   -6.1050   -0.4124 C   0  0  0  0  0  0  0  0  0  0  0  0
   -4.0077   -7.2497    0.2406 C   0  0  0  0  0  0  0  0  0  0  0  0
   -4.0705   -8.2718   -0.6730 N   0  0  0  0  0  0  0  0  0  0  0  0
   -3.7472   -7.8015   -1.9233 C   0  0  0  0  0  0  0  0  0  0  0  0
   -3.7214   -8.4744   -3.1496 C   0  0  0  0  0  0  0  0  0  0  0  0
   -3.2950   -7.7613   -4.2717 C   0  0  0  0  0  0  0  0  0  0  0  0
   -2.8935   -6.4336   -4.1655 C   0  0  0  0  0  0  0  0  0  0  0  0
   -2.9239   -5.7748   -2.9307 C   0  0  0  0  0  0  0  0  0  0  0  0
   -3.3766   -6.4645   -1.7855 C   0  0  0  0  0  0  0  0  0  0  0  0
   -4.3040   -9.2376   -0.4701 H   0  0  0  0  0  0  0  0  0  0  0  0
  1  2  1  0
  2  3  1  0
  3  4  2  0
  4  5  1  0
  5  6  1  0
  6  7  1  0
  7 14  1  0
 14 15  2  0
 15 16  1  0
 16 17  2  0
 17 18  1  0
 17 19  1  0
 19 20  2  0
  7  8  1  0
  8  9  1  0
  9 10  1  0
  8 11  1  0
 11 21  1  0
 21 22  1  0
 22 23  2  0
 23 24  1  0
 24 25  1  0
 25 26  2  0
 26 27  1  0
 27 28  2  0
 28 29  1  0
 29 30  2  0
 10  2  1  0
 30 22  1  0
 11  4  1  0
 30 25  1  0
 20 14  1  0
  2 12  1  0
  8 13  1  0
 24 31  1  0
M  CHG 1   2   1
M  CHG 1   8   1
M  END
> <input_smiles>
CN1CCN(C2CC3=CNC4=CC=CC=C34)C(CCC2=C1)c5ccc(Cl)cc5

> <prot_variant_index>
3

> <minimizedAffinity>
0.00000

> <CNNscore>
0.2955422997

> <CNNaffinity>
3.3406417370

> <CNN_VS>
0.9873009324

> <CNNaffinity_variance>
0.4489864409

$$$$
LSD__p3


 31 35  0  0  0  0  0  0  0  0999 V2000
   -3.4718    0.6106   -0.9752 C   0  0  0  0  0  0  0  0  0  0  0  0
   -2.7203    1.1296    0.2525 N   0  0  0  0  0  0  0  0  0  0  0  0
   -3.5016    2.1540    0.8849 C   0  0  0  0  0  0  0  0  0  0  0  0
   -3.0188    2.8001    1.9590 C   0  0  0  0  0  0  0  0  0  0  0  0
   -3.5105    4.1997    2.2780 C   0  0  0  0  0  0  0  0  0  0  0  0
   -2.4652    5.1984    1.7177 C   0  0  0  0  0  0  0  0  0  0  0  0
   -0.9754    4.8335    2.0249 C   0  0  0  0  0  0  0  0  0  0  0  0
   -0.7455    3.3111    1.7701 N   0  0  0  0  0  0  0  0  0  0  0  0
   -0.7422    2.9404    0.2799 C   0  0  0  0  0  0  0  0  0  0  0  0
   -1.2643    1.5201   -0.1164 C   0  0  0  0  0  0  0  0  0  0  0  0
   -1.7107    2.5606    2.6524 C   0  0  0  0  0  0  0  0  0  0  0  0
   -2.6981    0.2869    0.8479 H   0  0  0  0  0  0  0  0  0  0  0  0
    0.2068    3.1363    2.1308 H   0  0  0  0  0  0  0  0  0  0  0  0
    0.1083    5.6656    1.3651 C   0  0  0  0  0  0  0  0  0  0  0  0
   -0.1450    6.5910    0.3400 C   0  0  0  0  0  0  0  0  0  0  0  0
    0.9031    7.3035   -0.2543 C   0  0  0  0  0  0  0  0  0  0  0  0
    2.2139    7.1040    0.1685 C   0  0  0  0  0  0  0  0  0  0  0  0
    3.4951    7.9727   -0.5734 Cl  0  0  0  0  0  0  0  0  0  0  0  0
    2.4870    6.2009    1.1896 C   0  0  0  0  0  0  0  0  0  0  0  0
    1.4433    5.4877    1.7857 C   0  0  0  0  0  0  0  0  0  0  0  0
   -1.2302    1.1514    3.0925 C   0  0  0  0  0  0  0  0  0  0  0  0
   -2.0367    0.5848    4.2228 C   0  0  0  0  0  0  0  0  0  0  0  0
   -1.8337    0.8177    5.5699 C   0  0  0  0  0  0  0  0  0  0  0  0
   -2.8077    0.1573    6.2760 N   0  0  0  0  0  0  0  0  0  0  0  0
   -3.6730   -0.4651    5.4083 C   0  0  0  0  0  0  0  0  0  0  0  0
   -4.8257   -1.2099    5.6802 C   0  0  0  0  0  0  0  0  0  0  0  0
   -5.4952   -1.7863    4.5990 C   0  0  0  0  0  0  0  0  0  0  0  0
   -5.0184   -1.6376    3.3006 C   0  0  0  0  0  0  0  0  0  0  0  0
   -3.8626   -0.8903    3.0454 C   0  0  0  0  0  0  0  0  0  0  0  0
   -3.1819   -0.2743    4.1175 C   0  0  0  0  0  0  0  0  0  0  0  0
   -2.8834    0.1127    7.2863 H   0  0  0  0  0  0  0  0  0  0  0  0
  1  2  1  0
  2  3  1  0
  3  4  2  0
  4  5  1  0
  5  6  1  0
  6  7  1  0
  7 14  1  0
 14 15  2  0
 15 16  1  0
 16 17  2  0
 17 18  1  0
 17 19  1  0
 19 20  2  0
  7  8  1  0
  8  9  1  0
  9 10  1  0
  8 11  1  0
 11 21  1  0
 21 22  1  0
 22 23  2  0
 23 24  1  0
 24 25  1  0
 25 26  2  0
 26 27  1  0
 27 28  2  0
 28 29  1  0
 29 30  2  0
 10  2  1  0
 30 22  1  0
 11  4  1  0
 30 25  1  0
 20 14  1  0
  2 12  1  0
  8 13  1  0
 24 31  1  0
M  CHG 1   2   1
M  CHG 1   8   1
M  END
> <input_smiles>
CN1CCN(C2CC3=CNC4=CC=CC=C34)C(CCC2=C1)c5ccc(Cl)cc5

> <prot_variant_index>
3

> <minimizedAffinity>
0.00000

> <CNNscore>
0.2906519473

> <CNNaffinity>
3.1921241283

> <CNN_VS>
0.9277970791

> <CNNaffinity_variance>
0.6344737411

$$$$
LSD__p3


 31 35  0  0  0  0  0  0  0  0999 V2000
   -1.3008    4.8192    4.2271 C   0  0  0  0  0  0  0  0  0  0  0  0
   -1.1896    5.1090    2.7287 N   0  0  0  0  0  0  0  0  0  0  0  0
   -0.5828    6.3959    2.5415 C   0  0  0  0  0  0  0  0  0  0  0  0
   -0.4295    6.8926    1.3030 C   0  0  0  0  0  0  0  0  0  0  0  0
   -0.3485    8.3940    1.0998 C   0  0  0  0  0  0  0  0  0  0  0  0
   -1.7584    8.8827    0.6786 C   0  0  0  0  0  0  0  0  0  0  0  0
   -2.4583    8.0098   -0.4146 C   0  0  0  0  0  0  0  0  0  0  0  0
   -2.2777    6.4978   -0.0729 N   0  0  0  0  0  0  0  0  0  0  0  0
   -3.1251    6.0422    1.1240 C   0  0  0  0  0  0  0  0  0  0  0  0
   -2.5553    4.8960    2.0229 C   0  0  0  0  0  0  0  0  0  0  0  0
   -0.7956    6.2326    0.0069 C   0  0  0  0  0  0  0  0  0  0  0  0
   -0.5394    4.3667    2.4263 H   0  0  0  0  0  0  0  0  0  0  0  0
   -2.6378    6.0062   -0.9073 H   0  0  0  0  0  0  0  0  0  0  0  0
   -3.9041    8.3226   -0.7525 C   0  0  0  0  0  0  0  0  0  0  0  0
   -4.5933    7.7283   -1.8216 C   0  0  0  0  0  0  0  0  0  0  0  0
   -5.9169    8.0851   -2.1050 C   0  0  0  0  0  0  0  0  0  0  0  0
   -6.5685    9.0353   -1.3245 C   0  0  0  0  0  0  0  0  0  0  0  0
   -8.1876    9.4765   -1.6856 Cl  0  0  0  0  0  0  0  0  0  0  0  0
   -5.9092    9.6288   -0.2539 C   0  0  0  0  0  0  0  0  0  0  0  0
   -4.5878    9.2749    0.0324 C   0  0  0  0  0  0  0  0  0  0  0  0
   -0.3727    4.7834   -0.3556 C   0  0  0  0  0  0  0  0  0  0  0  0
    1.1010    4.6473   -0.5979 C   0  0  0  0  0  0  0  0  0  0  0  0
    1.7599    4.8870   -1.7890 C   0  0  0  0  0  0  0  0  0  0  0  0
    3.1037    4.6953   -1.5876 N   0  0  0  0  0  0  0  0  0  0  0  0
    3.3385    4.3802   -0.2706 C   0  0  0  0  0  0  0  0  0  0  0  0
    4.5507    4.1452    0.3873 C   0  0  0  0  0  0  0  0  0  0  0  0
    4.4976    3.7831    1.7347 C   0  0  0  0  0  0  0  0  0  0  0  0
    3.2787    3.6443    2.3907 C   0  0  0  0  0  0  0  0  0  0  0  0
    2.0744    3.8817    1.7178 C   0  0  0  0  0  0  0  0  0  0  0  0
    2.1009    4.2755    0.3626 C   0  0  0  0  0  0  0  0  0  0  0  0
    3.8265    4.7581   -2.2962 H   0  0  0  0  0  0  0  0  0  0  0  0
  1  2  1  0
  2  3  1  0
  3  4  2  0
  4  5  1  0
  5  6  1  0
  6  7  1  0
  7 14  1  0
 14 15  2  0
 15 16  1  0
 16 17  2  0
 17 18  1  0
 17 19  1  0
 19 20  2  0
  7  8  1  0
  8  9  1  0
  9 10  1  0
  8 11  1  0
 11 21  1  0
 21 22  1  0
 22 23  2  0
 23 24  1  0
 24 25  1  0
 25 26  2  0
 26 27  1  0
 27 28  2  0
 28 29  1  0
 29 30  2  0
 10  2  1  0
 30 22  1  0
 11  4  1  0
 30 25  1  0
 20 14  1  0
  2 12  1  0
  8 13  1  0
 24 31  1  0
M  CHG 1   2   1
M  CHG 1   8   1
M  END
> <input_smiles>
CN1CCN(C2CC3=CNC4=CC=CC=C34)C(CCC2=C1)c5ccc(Cl)cc5

> <prot_variant_index>
3

> <minimizedAffinity>
0.00000

> <CNNscore>
0.2869257629

> <CNNaffinity>
3.0137817860

> <CNN_VS>
0.8647316098

> <CNNaffinity_variance>
0.8153873086

$$$$
LSD__p3


 31 35  0  0  0  0  0  0  0  0999 V2000
   -0.5531   -5.4139    3.2516 C   0  0  0  0  0  0  0  0  0  0  0  0
   -0.2611   -4.7700    1.8945 N   0  0  0  0  0  0  0  0  0  0  0  0
    0.7721   -5.5142    1.2326 C   0  0  0  0  0  0  0  0  0  0  0  0
    1.2376   -5.1038    0.0413 C   0  0  0  0  0  0  0  0  0  0  0  0
    2.6417   -5.4852   -0.3890 C   0  0  0  0  0  0  0  0  0  0  0  0
    3.5675   -4.2823   -0.0730 C   0  0  0  0  0  0  0  0  0  0  0  0
    3.0013   -2.8868   -0.4962 C   0  0  0  0  0  0  0  0  0  0  0  0
    1.4992   -2.7842   -0.0854 N   0  0  0  0  0  0  0  0  0  0  0  0
    1.2946   -2.6356    1.4294 C   0  0  0  0  0  0  0  0  0  0  0  0
   -0.0042   -3.2474    2.0503 C   0  0  0  0  0  0  0  0  0  0  0  0
    0.7742   -3.9223   -0.7580 C   0  0  0  0  0  0  0  0  0  0  0  0
   -1.1603   -4.9076    1.4070 H   0  0  0  0  0  0  0  0  0  0  0  0
    1.1772   -1.9064   -0.5250 H   0  0  0  0  0  0  0  0  0  0  0  0
    3.7689   -1.6507   -0.0660 C   0  0  0  0  0  0  0  0  0  0  0  0
    4.8305   -1.6816    0.8524 C   0  0  0  0  0  0  0  0  0  0  0  0
    5.4769   -0.5011    1.2372 C   0  0  0  0  0  0  0  0  0  0  0  0
    5.0746    0.7219    0.7088 C   0  0  0  0  0  0  0  0  0  0  0  0
    5.8643    2.1666    1.1946 Cl  0  0  0  0  0  0  0  0  0  0  0  0
    4.0330    0.7752   -0.2106 C   0  0  0  0  0  0  0  0  0  0  0  0
    3.3853   -0.4013   -0.5975 C   0  0  0  0  0  0  0  0  0  0  0  0
   -0.7205   -3.6463   -1.0741 C   0  0  0  0  0  0  0  0  0  0  0  0
   -0.9327   -3.0729   -2.4435 C   0  0  0  0  0  0  0  0  0  0  0  0
   -1.4758   -3.7308   -3.5308 C   0  0  0  0  0  0  0  0  0  0  0  0
   -1.5426   -2.8506   -4.5815 N   0  0  0  0  0  0  0  0  0  0  0  0
   -1.0954   -1.6134   -4.1837 C   0  0  0  0  0  0  0  0  0  0  0  0
   -1.0263   -0.4163   -4.9046 C   0  0  0  0  0  0  0  0  0  0  0  0
   -0.4691    0.6935   -4.2666 C   0  0  0  0  0  0  0  0  0  0  0  0
    0.0158    0.6024   -2.9659 C   0  0  0  0  0  0  0  0  0  0  0  0
   -0.0595   -0.6033   -2.2585 C   0  0  0  0  0  0  0  0  0  0  0  0
   -0.6429   -1.7334   -2.8705 C   0  0  0  0  0  0  0  0  0  0  0  0
   -1.8577   -3.0679   -5.5207 H   0  0  0  0  0  0  0  0  0  0  0  0
  1  2  1  0
  2  3  1  0
  3  4  2  0
  4  5  1  0
  5  6  1  0
  6  7  1  0
  7 14  1  0
 14 15  2  0
 15 16  1  0
 16 17  2  0
 17 18  1  0
 17 19  1  0
 19 20  2  0
  7  8  1  0
  8  9  1  0
  9 10  1  0
  8 11  1  0
 11 21  1  0
 21 22  1  0
 22 23  2  0
 23 24  1  0
 24 25  1  0
 25 26  2  0
 26 27  1  0
 27 28  2  0
 28 29  1  0
 29 30  2  0
 10  2  1  0
 30 22  1  0
 11  4  1  0
 30 25  1  0
 20 14  1  0
  2 12  1  0
  8 13  1  0
 24 31  1  0
M  CHG 1   2   1
M  CHG 1   8   1
M  END
> <input_smiles>
CN1CCN(C2CC3=CNC4=CC=CC=C34)C(CCC2=C1)c5ccc(Cl)cc5

> <prot_variant_index>
3

> <minimizedAffinity>
0.00000

> <CNNscore>
0.2853000760

> <CNNaffinity>
3.3623812199

> <CNN_VS>
0.9592876434

> <CNNaffinity_variance>
0.8025397658

$$$$
LSD__p3


 31 35  0  0  0  0  0  0  0  0999 V2000
   -1.4137   -7.5881    5.1676 C   0  0  0  0  0  0  0  0  0  0  0  0
   -0.3701   -6.9717    4.2335 N   0  0  0  0  0  0  0  0  0  0  0  0
    0.9261   -7.0771    4.8404 C   0  0  0  0  0  0  0  0  0  0  0  0
    1.9997   -6.5528    4.2268 C   0  0  0  0  0  0  0  0  0  0  0  0
    3.2071   -6.1392    5.0473 C   0  0  0  0  0  0  0  0  0  0  0  0
    3.1065   -4.6103    5.2843 C   0  0  0  0  0  0  0  0  0  0  0  0
    2.7308   -3.7712    4.0186 C   0  0  0  0  0  0  0  0  0  0  0  0
    1.5670   -4.4729    3.2512 N   0  0  0  0  0  0  0  0  0  0  0  0
    0.2157   -4.3676    3.9731 C   0  0  0  0  0  0  0  0  0  0  0  0
   -0.7972   -5.5460    3.7937 C   0  0  0  0  0  0  0  0  0  0  0  0
    2.0391   -5.8603    2.8970 C   0  0  0  0  0  0  0  0  0  0  0  0
   -0.4290   -7.6028    3.4191 H   0  0  0  0  0  0  0  0  0  0  0  0
    1.4863   -3.9371    2.3715 H   0  0  0  0  0  0  0  0  0  0  0  0
    2.4450   -2.2932    4.2077 C   0  0  0  0  0  0  0  0  0  0  0  0
    2.2968   -1.6901    5.4669 C   0  0  0  0  0  0  0  0  0  0  0  0
    1.9979   -0.3269    5.5755 C   0  0  0  0  0  0  0  0  0  0  0  0
    1.8467    0.4503    4.4311 C   0  0  0  0  0  0  0  0  0  0  0  0
    1.4683    2.1187    4.5721 Cl  0  0  0  0  0  0  0  0  0  0  0  0
    1.9998   -0.1232    3.1738 C   0  0  0  0  0  0  0  0  0  0  0  0
    2.2985   -1.4840    3.0613 C   0  0  0  0  0  0  0  0  0  0  0  0
    1.4038   -6.4562    1.6118 C   0  0  0  0  0  0  0  0  0  0  0  0
    1.4459   -5.5128    0.4468 C   0  0  0  0  0  0  0  0  0  0  0  0
    2.5626   -5.1801   -0.2966 C   0  0  0  0  0  0  0  0  0  0  0  0
    2.1775   -4.3263   -1.2996 N   0  0  0  0  0  0  0  0  0  0  0  0
    0.8175   -4.1333   -1.2523 C   0  0  0  0  0  0  0  0  0  0  0  0
   -0.0061   -3.3822   -2.0979 C   0  0  0  0  0  0  0  0  0  0  0  0
   -1.3645   -3.3100   -1.7834 C   0  0  0  0  0  0  0  0  0  0  0  0
   -1.8731   -3.9492   -0.6574 C   0  0  0  0  0  0  0  0  0  0  0  0
   -1.0354   -4.6959    0.1795 C   0  0  0  0  0  0  0  0  0  0  0  0
    0.3370   -4.8076   -0.1307 C   0  0  0  0  0  0  0  0  0  0  0  0
    2.7929   -3.8838   -1.9733 H   0  0  0  0  0  0  0  0  0  0  0  0
  1  2  1  0
  2  3  1  0
  3  4  2  0
  4  5  1  0
  5  6  1  0
  6  7  1  0
  7 14  1  0
 14 15  2  0
 15 16  1  0
 16 17  2  0
 17 18  1  0
 17 19  1  0
 19 20  2  0
  7  8  1  0
  8  9  1  0
  9 10  1  0
  8 11  1  0
 11 21  1  0
 21 22  1  0
 22 23  2  0
 23 24  1  0
 24 25  1  0
 25 26  2  0
 26 27  1  0
 27 28  2  0
 28 29  1  0
 29 30  2  0
 10  2  1  0
 30 22  1  0
 11  4  1  0
 30 25  1  0
 20 14  1  0
  2 12  1  0
  8 13  1  0
 24 31  1  0
M  CHG 1   2   1
M  CHG 1   8   1
M  END
> <input_smiles>
CN1CCN(C2CC3=CNC4=CC=CC=C34)C(CCC2=C1)c5ccc(Cl)cc5

> <prot_variant_index>
3

> <minimizedAffinity>
0.00000

> <CNNscore>
0.2829507887

> <CNNaffinity>
3.2864723206

> <CNN_VS>
0.9299099445

> <CNNaffinity_variance>
1.0964176655

$$$$
LSD__p3


 31 35  0  0  0  0  0  0  0  0999 V2000
   -0.8735   -6.0399    5.6485 C   0  0  0  0  0  0  0  0  0  0  0  0
    0.1019   -5.2520    4.7713 N   0  0  0  0  0  0  0  0  0  0  0  0
    1.3812   -5.1993    5.4194 C   0  0  0  0  0  0  0  0  0  0  0  0
    2.3895   -4.5100    4.8604 C   0  0  0  0  0  0  0  0  0  0  0  0
    3.5024   -3.9636    5.7352 C   0  0  0  0  0  0  0  0  0  0  0  0
    3.1828   -2.4728    6.0166 C   0  0  0  0  0  0  0  0  0  0  0  0
    2.7324   -1.6486    4.7657 C   0  0  0  0  0  0  0  0  0  0  0  0
    1.7013   -2.4760    3.9363 N   0  0  0  0  0  0  0  0  0  0  0  0
    0.3273   -2.5844    4.6136 C   0  0  0  0  0  0  0  0  0  0  0  0
   -0.5059   -3.8840    4.3620 C   0  0  0  0  0  0  0  0  0  0  0  0
    2.3723   -3.7713    3.5553 C   0  0  0  0  0  0  0  0  0  0  0  0
    0.1560   -5.8555    3.9357 H   0  0  0  0  0  0  0  0  0  0  0  0
    1.5734   -1.9251    3.0717 H   0  0  0  0  0  0  0  0  0  0  0  0
    2.2382   -0.2319    4.9911 C   0  0  0  0  0  0  0  0  0  0  0  0
    1.9617    0.2965    6.2622 C   0  0  0  0  0  0  0  0  0  0  0  0
    1.4734    1.6008    6.4031 C   0  0  0  0  0  0  0  0  0  0  0  0
    1.2584    2.3932    5.2795 C   0  0  0  0  0  0  0  0  0  0  0  0
    0.6480    3.9875    5.4594 Cl  0  0  0  0  0  0  0  0  0  0  0  0
    1.5356    1.8947    4.0116 C   0  0  0  0  0  0  0  0  0  0  0  0
    2.0236    0.5930    3.8669 C   0  0  0  0  0  0  0  0  0  0  0  0
    1.8652   -4.4024    2.2305 C   0  0  0  0  0  0  0  0  0  0  0  0
    2.7700   -5.4801    1.7119 C   0  0  0  0  0  0  0  0  0  0  0  0
    3.8893   -5.2986    0.9217 C   0  0  0  0  0  0  0  0  0  0  0  0
    4.4676   -6.5233    0.7008 N   0  0  0  0  0  0  0  0  0  0  0  0
    3.7703   -7.4976    1.3741 C   0  0  0  0  0  0  0  0  0  0  0  0
    4.0228   -8.8705    1.4685 C   0  0  0  0  0  0  0  0  0  0  0  0
    3.1095   -9.6502    2.1807 C   0  0  0  0  0  0  0  0  0  0  0  0
    1.9799   -9.0801    2.7588 C   0  0  0  0  0  0  0  0  0  0  0  0
    1.7409   -7.7047    2.6541 C   0  0  0  0  0  0  0  0  0  0  0  0
    2.6625   -6.8894    1.9628 C   0  0  0  0  0  0  0  0  0  0  0  0
    5.2787   -6.7020    0.1188 H   0  0  0  0  0  0  0  0  0  0  0  0
  1  2  1  0
  2  3  1  0
  3  4  2  0
  4  5  1  0
  5  6  1  0
  6  7  1  0
  7 14  1  0
 14 15  2  0
 15 16  1  0
 16 17  2  0
 17 18  1  0
 17 19  1  0
 19 20  2  0
  7  8  1  0
  8  9  1  0
  9 10  1  0
  8 11  1  0
 11 21  1  0
 21 22  1  0
 22 23  2  0
 23 24  1  0
 24 25  1  0
 25 26  2  0
 26 27  1  0
 27 28  2  0
 28 29  1  0
 29 30  2  0
 10  2  1  0
 30 22  1  0
 11  4  1  0
 30 25  1  0
 20 14  1  0
  2 12  1  0
  8 13  1  0
 24 31  1  0
M  CHG 1   2   1
M  CHG 1   8   1
M  END
> <input_smiles>
CN1CCN(C2CC3=CNC4=CC=CC=C34)C(CCC2=C1)c5ccc(Cl)cc5

> <prot_variant_index>
3

> <minimizedAffinity>
0.00000

> <CNNscore>
0.2827649415

> <CNNaffinity>
3.0934588909

> <CNN_VS>
0.8747217059

> <CNNaffinity_variance>
0.8581743836

$$$$
LSD__p3


 31 35  0  0  0  0  0  0  0  0999 V2000
   -0.4558   -5.2653    4.0653 C   0  0  0  0  0  0  0  0  0  0  0  0
    0.0654   -4.6180    2.7804 N   0  0  0  0  0  0  0  0  0  0  0  0
    1.2945   -5.2527    2.3982 C   0  0  0  0  0  0  0  0  0  0  0  0
    1.9709   -4.8146    1.3237 C   0  0  0  0  0  0  0  0  0  0  0  0
    3.4683   -5.0425    1.2337 C   0  0  0  0  0  0  0  0  0  0  0  0
    4.1657   -3.7368    1.6949 C   0  0  0  0  0  0  0  0  0  0  0  0
    3.5649   -2.4226    1.0957 C   0  0  0  0  0  0  0  0  0  0  0  0
    2.0067   -2.4831    1.1570 N   0  0  0  0  0  0  0  0  0  0  0  0
    1.4504   -2.3303    2.5802 C   0  0  0  0  0  0  0  0  0  0  0  0
    0.1174   -3.0735    2.9227 C   0  0  0  0  0  0  0  0  0  0  0  0
    1.5775   -3.7084    0.3904 C   0  0  0  0  0  0  0  0  0  0  0  0
   -0.6806   -4.8657    2.1115 H   0  0  0  0  0  0  0  0  0  0  0  0
    1.7011   -1.6558    0.6188 H   0  0  0  0  0  0  0  0  0  0  0  0
    4.0798   -1.0997    1.6315 C   0  0  0  0  0  0  0  0  0  0  0  0
    3.7483    0.1431    1.0685 C   0  0  0  0  0  0  0  0  0  0  0  0
    4.2845    1.3279    1.5864 C   0  0  0  0  0  0  0  0  0  0  0  0
    5.1538    1.2872    2.6724 C   0  0  0  0  0  0  0  0  0  0  0  0
    5.8166    2.7434    3.2944 Cl  0  0  0  0  0  0  0  0  0  0  0  0
    5.4873    0.0687    3.2530 C   0  0  0  0  0  0  0  0  0  0  0  0
    4.9538   -1.1164    2.7389 C   0  0  0  0  0  0  0  0  0  0  0  0
    0.1723   -3.6095   -0.2622 C   0  0  0  0  0  0  0  0  0  0  0  0
   -0.1561   -2.2254   -0.7371 C   0  0  0  0  0  0  0  0  0  0  0  0
   -1.1791   -1.4216   -0.2707 C   0  0  0  0  0  0  0  0  0  0  0  0
   -1.1171   -0.2169   -0.9252 N   0  0  0  0  0  0  0  0  0  0  0  0
   -0.0398   -0.2037   -1.7784 C   0  0  0  0  0  0  0  0  0  0  0  0
    0.4291    0.8222   -2.6062 C   0  0  0  0  0  0  0  0  0  0  0  0
    1.5261    0.5450   -3.4242 C   0  0  0  0  0  0  0  0  0  0  0  0
    2.1172   -0.7143   -3.4258 C   0  0  0  0  0  0  0  0  0  0  0  0
    1.6352   -1.7307   -2.5925 C   0  0  0  0  0  0  0  0  0  0  0  0
    0.5445   -1.4688   -1.7358 C   0  0  0  0  0  0  0  0  0  0  0  0
   -1.7690    0.5525   -0.8181 H   0  0  0  0  0  0  0  0  0  0  0  0
  1  2  1  0
  2  3  1  0
  3  4  2  0
  4  5  1  0
  5  6  1  0
  6  7  1  0
  7 14  1  0
 14 15  2  0
 15 16  1  0
 16 17  2  0
 17 18  1  0
 17 19  1  0
 19 20  2  0
  7  8  1  0
  8  9  1  0
  9 10  1  0
  8 11  1  0
 11 21  1  0
 21 22  1  0
 22 23  2  0
 23 24  1  0
 24 25  1  0
 25 26  2  0
 26 27  1  0
 27 28  2  0
 28 29  1  0
 29 30  2  0
 10  2  1  0
 30 22  1  0
 11  4  1  0
 30 25  1  0
 20 14  1  0
  2 12  1  0
  8 13  1  0
 24 31  1  0
M  CHG 1   2   1
M  CHG 1   8   1
M  END
> <input_smiles>
CN1CCN(C2CC3=CNC4=CC=CC=C34)C(CCC2=C1)c5ccc(Cl)cc5

> <prot_variant_index>
3

> <minimizedAffinity>
0.00000

> <CNNscore>
0.2824664712

> <CNNaffinity>
3.4000079632

> <CNN_VS>
0.9603882432

> <CNNaffinity_variance>
0.9797811508

$$$$
LSD__p3


 31 35  0  0  0  0  0  0  0  0999 V2000
   -1.6533   -4.1221    5.9571 C   0  0  0  0  0  0  0  0  0  0  0  0
   -1.4511   -2.9684    4.9724 N   0  0  0  0  0  0  0  0  0  0  0  0
   -0.5015   -3.3641    3.9718 C   0  0  0  0  0  0  0  0  0  0  0  0
   -0.1210   -2.4912    3.0244 C   0  0  0  0  0  0  0  0  0  0  0  0
    1.2294   -2.6532    2.3518 C   0  0  0  0  0  0  0  0  0  0  0  0
    2.2186   -1.6903    3.0576 C   0  0  0  0  0  0  0  0  0  0  0  0
    1.6679   -0.2475    3.3072 C   0  0  0  0  0  0  0  0  0  0  0  0
    0.2088   -0.3309    3.8544 N   0  0  0  0  0  0  0  0  0  0  0  0
    0.1337   -0.8306    5.3046 C   0  0  0  0  0  0  0  0  0  0  0  0
   -1.1303   -1.6501    5.7258 C   0  0  0  0  0  0  0  0  0  0  0  0
   -0.6072   -1.0851    2.8353 C   0  0  0  0  0  0  0  0  0  0  0  0
   -2.3913   -2.8921    4.5536 H   0  0  0  0  0  0  0  0  0  0  0  0
   -0.1177    0.6494    3.8515 H   0  0  0  0  0  0  0  0  0  0  0  0
    2.5100    0.6973    4.1441 C   0  0  0  0  0  0  0  0  0  0  0  0
    2.2124    2.0599    4.3055 C   0  0  0  0  0  0  0  0  0  0  0  0
    3.0487    2.8892    5.0620 C   0  0  0  0  0  0  0  0  0  0  0  0
    4.1884    2.3691    5.6681 C   0  0  0  0  0  0  0  0  0  0  0  0
    5.2156    3.3948    6.5843 Cl  0  0  0  0  0  0  0  0  0  0  0  0
    4.4969    1.0204    5.5310 C   0  0  0  0  0  0  0  0  0  0  0  0
    3.6642    0.1891    4.7767 C   0  0  0  0  0  0  0  0  0  0  0  0
   -2.1125   -0.7067    2.7968 C   0  0  0  0  0  0  0  0  0  0  0  0
   -2.8110   -1.2098    1.5688 C   0  0  0  0  0  0  0  0  0  0  0  0
   -2.8620   -0.5788    0.3402 C   0  0  0  0  0  0  0  0  0  0  0  0
   -3.5551   -1.3812   -0.5311 N   0  0  0  0  0  0  0  0  0  0  0  0
   -3.9170   -2.5491    0.0964 C   0  0  0  0  0  0  0  0  0  0  0  0
   -4.5924   -3.6630   -0.4140 C   0  0  0  0  0  0  0  0  0  0  0  0
   -4.8860   -4.7040    0.4689 C   0  0  0  0  0  0  0  0  0  0  0  0
   -4.5333   -4.6236    1.8122 C   0  0  0  0  0  0  0  0  0  0  0  0
   -3.8589   -3.5014    2.3077 C   0  0  0  0  0  0  0  0  0  0  0  0
   -3.5260   -2.4468    1.4307 C   0  0  0  0  0  0  0  0  0  0  0  0
   -3.7869   -1.1549   -1.4921 H   0  0  0  0  0  0  0  0  0  0  0  0
  1  2  1  0
  2  3  1  0
  3  4  2  0
  4  5  1  0
  5  6  1  0
  6  7  1  0
  7 14  1  0
 14 15  2  0
 15 16  1  0
 16 17  2  0
 17 18  1  0
 17 19  1  0
 19 20  2  0
  7  8  1  0
  8  9  1  0
  9 10  1  0
  8 11  1  0
 11 21  1  0
 21 22  1  0
 22 23  2  0
 23 24  1  0
 24 25  1  0
 25 26  2  0
 26 27  1  0
 27 28  2  0
 28 29  1  0
 29 30  2  0
 10  2  1  0
 30 22  1  0
 11  4  1  0
 30 25  1  0
 20 14  1  0
  2 12  1  0
  8 13  1  0
 24 31  1  0
M  CHG 1   2   1
M  CHG 1   8   1
M  END
> <input_smiles>
CN1CCN(C2CC3=CNC4=CC=CC=C34)C(CCC2=C1)c5ccc(Cl)cc5

> <prot_variant_index>
3

> <minimizedAffinity>
0.00000

> <CNNscore>
0.2820580006

> <CNNaffinity>
3.1660506725

> <CNN_VS>
0.8930099010

> <CNNaffinity_variance>
0.6714000106

$$$$
LSD__p3


 31 35  0  0  0  0  0  0  0  0999 V2000
   -0.3454   -6.9715    3.3045 C   0  0  0  0  0  0  0  0  0  0  0  0
   -0.6599   -6.4554    1.8988 N   0  0  0  0  0  0  0  0  0  0  0  0
    0.3507   -6.9170    0.9904 C   0  0  0  0  0  0  0  0  0  0  0  0
    0.3159   -6.5433   -0.2993 C   0  0  0  0  0  0  0  0  0  0  0  0
    1.5989   -6.5162   -1.1089 C   0  0  0  0  0  0  0  0  0  0  0  0
    2.1084   -5.0519   -1.1234 C   0  0  0  0  0  0  0  0  0  0  0  0
    1.0105   -3.9758   -1.4127 C   0  0  0  0  0  0  0  0  0  0  0  0
   -0.2712   -4.2984   -0.5827 N   0  0  0  0  0  0  0  0  0  0  0  0
   -0.1058   -4.0213    0.9187 C   0  0  0  0  0  0  0  0  0  0  0  0
   -0.9052   -4.9230    1.9159 C   0  0  0  0  0  0  0  0  0  0  0  0
   -0.7157   -5.6860   -0.9702 C   0  0  0  0  0  0  0  0  0  0  0  0
   -1.5534   -6.9332    1.7025 H   0  0  0  0  0  0  0  0  0  0  0  0
   -0.9768   -3.6338   -0.9404 H   0  0  0  0  0  0  0  0  0  0  0  0
    1.3961   -2.5149   -1.2729 C   0  0  0  0  0  0  0  0  0  0  0  0
    0.5593   -1.4551   -1.6574 C   0  0  0  0  0  0  0  0  0  0  0  0
    0.9865   -0.1275   -1.5367 C   0  0  0  0  0  0  0  0  0  0  0  0
    2.2503    0.1581   -1.0289 C   0  0  0  0  0  0  0  0  0  0  0  0
    2.7717    1.7881   -0.8950 Cl  0  0  0  0  0  0  0  0  0  0  0  0
    3.0916   -0.8750   -0.6315 C   0  0  0  0  0  0  0  0  0  0  0  0
    2.6686   -2.2018   -0.7502 C   0  0  0  0  0  0  0  0  0  0  0  0
   -2.2420   -5.9402   -0.8431 C   0  0  0  0  0  0  0  0  0  0  0  0
   -2.6209   -7.3679   -1.1023 C   0  0  0  0  0  0  0  0  0  0  0  0
   -3.1096   -8.2664   -0.1727 C   0  0  0  0  0  0  0  0  0  0  0  0
   -3.3774   -9.4504   -0.8129 N   0  0  0  0  0  0  0  0  0  0  0  0
   -3.1159   -9.3248   -2.1563 C   0  0  0  0  0  0  0  0  0  0  0  0
   -3.2829  -10.2552   -3.1877 C   0  0  0  0  0  0  0  0  0  0  0  0
   -2.8789   -9.8805   -4.4706 C   0  0  0  0  0  0  0  0  0  0  0  0
   -2.3137   -8.6314   -4.7064 C   0  0  0  0  0  0  0  0  0  0  0  0
   -2.1521   -7.7121   -3.6631 C   0  0  0  0  0  0  0  0  0  0  0  0
   -2.5773   -8.0554   -2.3617 C   0  0  0  0  0  0  0  0  0  0  0  0
   -3.7049  -10.3036   -0.3733 H   0  0  0  0  0  0  0  0  0  0  0  0
  1  2  1  0
  2  3  1  0
  3  4  2  0
  4  5  1  0
  5  6  1  0
  6  7  1  0
  7 14  1  0
 14 15  2  0
 15 16  1  0
 16 17  2  0
 17 18  1  0
 17 19  1  0
 19 20  2  0
  7  8  1  0
  8  9  1  0
  9 10  1  0
  8 11  1  0
 11 21  1  0
 21 22  1  0
 22 23  2  0
 23 24  1  0
 24 25  1  0
 25 26  2  0
 26 27  1  0
 27 28  2  0
 28 29  1  0
 29 30  2  0
 10  2  1  0
 30 22  1  0
 11  4  1  0
 30 25  1  0
 20 14  1  0
  2 12  1  0
  8 13  1  0
 24 31  1  0
M  CHG 1   2   1
M  CHG 1   8   1
M  END
> <input_smiles>
CN1CCN(C2CC3=CNC4=CC=CC=C34)C(CCC2=C1)c5ccc(Cl)cc5

> <prot_variant_index>
3

> <minimizedAffinity>
0.00000

> <CNNscore>
0.2820335031

> <CNNaffinity>
3.2755260468

> <CNN_VS>
0.9238080978

> <CNNaffinity_variance>
0.5202990174

$$$$
LSD__p3


 31 35  0  0  0  0  0  0  0  0999 V2000
   -2.5727   -0.2446   -2.8168 C   0  0  0  0  0  0  0  0  0  0  0  0
   -1.4311   -1.2632   -2.7873 N   0  0  0  0  0  0  0  0  0  0  0  0
   -1.6156   -2.1453   -1.6705 C   0  0  0  0  0  0  0  0  0  0  0  0
   -0.7031   -3.0951   -1.4069 C   0  0  0  0  0  0  0  0  0  0  0  0
   -0.5562   -3.6244    0.0075 C   0  0  0  0  0  0  0  0  0  0  0  0
    0.6337   -2.8766    0.6624 C   0  0  0  0  0  0  0  0  0  0  0  0
    1.9096   -2.7562   -0.2348 C   0  0  0  0  0  0  0  0  0  0  0  0
    1.4952   -2.3494   -1.6834 N   0  0  0  0  0  0  0  0  0  0  0  0
    1.0314   -0.8895   -1.7929 C   0  0  0  0  0  0  0  0  0  0  0  0
   -0.0544   -0.5511   -2.8668 C   0  0  0  0  0  0  0  0  0  0  0  0
    0.5407   -3.4026   -2.1865 C   0  0  0  0  0  0  0  0  0  0  0  0
   -1.5927   -1.7744   -3.6692 H   0  0  0  0  0  0  0  0  0  0  0  0
    2.3687   -2.4345   -2.2285 H   0  0  0  0  0  0  0  0  0  0  0  0
    3.0503   -1.8915    0.2682 C   0  0  0  0  0  0  0  0  0  0  0  0
    2.9385   -1.0308    1.3719 C   0  0  0  0  0  0  0  0  0  0  0  0
    4.0172   -0.2306    1.7661 C   0  0  0  0  0  0  0  0  0  0  0  0
    5.2194   -0.2818    1.0670 C   0  0  0  0  0  0  0  0  0  0  0  0
    6.5339    0.7114    1.5491 Cl  0  0  0  0  0  0  0  0  0  0  0  0
    5.3565   -1.1348   -0.0222 C   0  0  0  0  0  0  0  0  0  0  0  0
    4.2818   -1.9356   -0.4188 C   0  0  0  0  0  0  0  0  0  0  0  0
    0.5478   -3.6062   -3.7256 C   0  0  0  0  0  0  0  0  0  0  0  0
    1.8874   -3.3400   -4.3448 C   0  0  0  0  0  0  0  0  0  0  0  0
    2.1618   -2.4164   -5.3357 C   0  0  0  0  0  0  0  0  0  0  0  0
    3.5090   -2.4456   -5.5951 N   0  0  0  0  0  0  0  0  0  0  0  0
    4.1272   -3.3408   -4.7552 C   0  0  0  0  0  0  0  0  0  0  0  0
    5.4839   -3.6619   -4.6374 C   0  0  0  0  0  0  0  0  0  0  0  0
    5.8368   -4.6624   -3.7298 C   0  0  0  0  0  0  0  0  0  0  0  0
    4.8680   -5.3264   -2.9843 C   0  0  0  0  0  0  0  0  0  0  0  0
    3.5144   -4.9941   -3.1148 C   0  0  0  0  0  0  0  0  0  0  0  0
    3.1330   -3.9676   -4.0053 C   0  0  0  0  0  0  0  0  0  0  0  0
    3.9899   -1.9056   -6.3062 H   0  0  0  0  0  0  0  0  0  0  0  0
  1  2  1  0
  2  3  1  0
  3  4  2  0
  4  5  1  0
  5  6  1  0
  6  7  1  0
  7 14  1  0
 14 15  2  0
 15 16  1  0
 16 17  2  0
 17 18  1  0
 17 19  1  0
 19 20  2  0
  7  8  1  0
  8  9  1  0
  9 10  1  0
  8 11  1  0
 11 21  1  0
 21 22  1  0
 22 23  2  0
 23 24  1  0
 24 25  1  0
 25 26  2  0
 26 27  1  0
 27 28  2  0
 28 29  1  0
 29 30  2  0
 10  2  1  0
 30 22  1  0
 11  4  1  0
 30 25  1  0
 20 14  1  0
  2 12  1  0
  8 13  1  0
 24 31  1  0
M  CHG 1   2   1
M  CHG 1   8   1
M  END
> <input_smiles>
CN1CCN(C2CC3=CNC4=CC=CC=C34)C(CCC2=C1)c5ccc(Cl)cc5

> <prot_variant_index>
3

> <minimizedAffinity>
0.00000

> <CNNscore>
0.2813535035

> <CNNaffinity>
3.3080260754

> <CNN_VS>
0.9307247400

> <CNNaffinity_variance>
0.7296812534

$$$$
LSD__p3


 31 35  0  0  0  0  0  0  0  0999 V2000
   -2.9477    0.9602   -1.9494 C   0  0  0  0  0  0  0  0  0  0  0  0
   -1.9394   -0.1608   -1.6881 N   0  0  0  0  0  0  0  0  0  0  0  0
   -2.4234   -0.9907   -0.6220 C   0  0  0  0  0  0  0  0  0  0  0  0
   -1.6775   -2.0151   -0.1765 C   0  0  0  0  0  0  0  0  0  0  0  0
   -1.8613   -2.5171    1.2435 C   0  0  0  0  0  0  0  0  0  0  0  0
   -0.7539   -1.8678    2.1130 C   0  0  0  0  0  0  0  0  0  0  0  0
    0.6776   -1.8934    1.4827 C   0  0  0  0  0  0  0  0  0  0  0  0
    0.5950   -1.4889   -0.0223 N   0  0  0  0  0  0  0  0  0  0  0  0
    0.3071    0.0048   -0.2328 C   0  0  0  0  0  0  0  0  0  0  0  0
   -0.5104    0.4151   -1.5016 C   0  0  0  0  0  0  0  0  0  0  0  0
   -0.3422   -2.4602   -0.6943 C   0  0  0  0  0  0  0  0  0  0  0  0
   -1.9758   -0.6784   -2.5803 H   0  0  0  0  0  0  0  0  0  0  0  0
    1.5452   -1.6712   -0.3847 H   0  0  0  0  0  0  0  0  0  0  0  0
    1.7780   -1.1272    2.1927 C   0  0  0  0  0  0  0  0  0  0  0  0
    1.5387   -0.2298    3.2457 C   0  0  0  0  0  0  0  0  0  0  0  0
    2.5934    0.4751    3.8374 C   0  0  0  0  0  0  0  0  0  0  0  0
    3.8978    0.2909    3.3886 C   0  0  0  0  0  0  0  0  0  0  0  0
    5.1845    1.1678    4.1111 Cl  0  0  0  0  0  0  0  0  0  0  0  0
    4.1597   -0.6010    2.3547 C   0  0  0  0  0  0  0  0  0  0  0  0
    3.1093   -1.3068    1.7615 C   0  0  0  0  0  0  0  0  0  0  0  0
   -0.0558   -2.7056   -2.2003 C   0  0  0  0  0  0  0  0  0  0  0  0
    1.3982   -2.5841   -2.5468 C   0  0  0  0  0  0  0  0  0  0  0  0
    1.9491   -1.7182   -3.4724 C   0  0  0  0  0  0  0  0  0  0  0  0
    3.3117   -1.8815   -3.4620 N   0  0  0  0  0  0  0  0  0  0  0  0
    3.6640   -2.8074   -2.5095 C   0  0  0  0  0  0  0  0  0  0  0  0
    4.9337   -3.2517   -2.1250 C   0  0  0  0  0  0  0  0  0  0  0  0
    5.0037   -4.2557   -1.1572 C   0  0  0  0  0  0  0  0  0  0  0  0
    3.8481   -4.8045   -0.6108 C   0  0  0  0  0  0  0  0  0  0  0  0
    2.5849   -4.3498   -1.0073 C   0  0  0  0  0  0  0  0  0  0  0  0
    2.4864   -3.3168   -1.9641 C   0  0  0  0  0  0  0  0  0  0  0  0
    3.9722   -1.4090   -4.0695 H   0  0  0  0  0  0  0  0  0  0  0  0
  1  2  1  0
  2  3  1  0
  3  4  2  0
  4  5  1  0
  5  6  1  0
  6  7  1  0
  7 14  1  0
 14 15  2  0
 15 16  1  0
 16 17  2  0
 17 18  1  0
 17 19  1  0
 19 20  2  0
  7  8  1  0
  8  9  1  0
  9 10  1  0
  8 11  1  0
 11 21  1  0
 21 22  1  0
 22 23  2  0
 23 24  1  0
 24 25  1  0
 25 26  2  0
 26 27  1  0
 27 28  2  0
 28 29  1  0
 29 30  2  0
 10  2  1  0
 30 22  1  0
 11  4  1  0
 30 25  1  0
 20 14  1  0
  2 12  1  0
  8 13  1  0
 24 31  1  0
M  CHG 1   2   1
M  CHG 1   8   1
M  END
> <input_smiles>
CN1CCN(C2CC3=CNC4=CC=CC=C34)C(CCC2=C1)c5ccc(Cl)cc5

> <prot_variant_index>
3

> <minimizedAffinity>
0.00000

> <CNNscore>
0.2788350880

> <CNNaffinity>
3.3110077381

> <CNN_VS>
0.9232251048

> <CNNaffinity_variance>
0.7947158217

$$$$
LSD__p3


 31 35  0  0  0  0  0  0  0  0999 V2000
   -3.3754    1.2532   -3.3686 C   0  0  0  0  0  0  0  0  0  0  0  0
   -2.0587    0.5378   -3.0586 N   0  0  0  0  0  0  0  0  0  0  0  0
   -2.3087   -0.5280   -2.1307 C   0  0  0  0  0  0  0  0  0  0  0  0
   -1.2882   -1.2678   -1.6666 C   0  0  0  0  0  0  0  0  0  0  0  0
   -1.4143   -1.9647   -0.3247 C   0  0  0  0  0  0  0  0  0  0  0  0
   -0.7103   -1.0728    0.7302 C   0  0  0  0  0  0  0  0  0  0  0  0
    0.6863   -0.5177    0.2964 C   0  0  0  0  0  0  0  0  0  0  0  0
    0.6095    0.0047   -1.1723 N   0  0  0  0  0  0  0  0  0  0  0  0
   -0.1808    1.3143   -1.3084 C   0  0  0  0  0  0  0  0  0  0  0  0
   -0.9634    1.5551   -2.6412 C   0  0  0  0  0  0  0  0  0  0  0  0
    0.1613   -1.1492   -2.0331 C   0  0  0  0  0  0  0  0  0  0  0  0
   -1.8165    0.1489   -3.9834 H   0  0  0  0  0  0  0  0  0  0  0  0
    1.5914    0.2132   -1.4171 H   0  0  0  0  0  0  0  0  0  0  0  0
    1.3568    0.4990    1.2014 C   0  0  0  0  0  0  0  0  0  0  0  0
    2.6733    0.9498    1.0144 C   0  0  0  0  0  0  0  0  0  0  0  0
    3.2491    1.8632    1.9053 C   0  0  0  0  0  0  0  0  0  0  0  0
    2.5184    2.3393    2.9897 C   0  0  0  0  0  0  0  0  0  0  0  0
    3.2353    3.4501    4.0847 Cl  0  0  0  0  0  0  0  0  0  0  0  0
    1.2093    1.9153    3.1883 C   0  0  0  0  0  0  0  0  0  0  0  0
    0.6308    1.0036    2.3008 C   0  0  0  0  0  0  0  0  0  0  0  0
    0.6631   -1.0998   -3.5014 C   0  0  0  0  0  0  0  0  0  0  0  0
    0.4941   -2.4043   -4.2217 C   0  0  0  0  0  0  0  0  0  0  0  0
    1.3753   -3.4689   -4.2037 C   0  0  0  0  0  0  0  0  0  0  0  0
    0.8383   -4.4892   -4.9480 N   0  0  0  0  0  0  0  0  0  0  0  0
   -0.4027   -4.1252   -5.4131 C   0  0  0  0  0  0  0  0  0  0  0  0
   -1.3216   -4.8598   -6.1702 C   0  0  0  0  0  0  0  0  0  0  0  0
   -2.4994   -4.2194   -6.5603 C   0  0  0  0  0  0  0  0  0  0  0  0
   -2.7378   -2.8915   -6.2210 C   0  0  0  0  0  0  0  0  0  0  0  0
   -1.8075   -2.1697   -5.4640 C   0  0  0  0  0  0  0  0  0  0  0  0
   -0.6211   -2.8015   -5.0335 C   0  0  0  0  0  0  0  0  0  0  0  0
    1.2833   -5.3785   -5.1470 H   0  0  0  0  0  0  0  0  0  0  0  0
  1  2  1  0
  2  3  1  0
  3  4  2  0
  4  5  1  0
  5  6  1  0
  6  7  1  0
  7 14  1  0
 14 15  2  0
 15 16  1  0
 16 17  2  0
 17 18  1  0
 17 19  1  0
 19 20  2  0
  7  8  1  0
  8  9  1  0
  9 10  1  0
  8 11  1  0
 11 21  1  0
 21 22  1  0
 22 23  2  0
 23 24  1  0
 24 25  1  0
 25 26  2  0
 26 27  1  0
 27 28  2  0
 28 29  1  0
 29 30  2  0
 10  2  1  0
 30 22  1  0
 11  4  1  0
 30 25  1  0
 20 14  1  0
  2 12  1  0
  8 13  1  0
 24 31  1  0
M  CHG 1   2   1
M  CHG 1   8   1
M  END
> <input_smiles>
CN1CCN(C2CC3=CNC4=CC=CC=C34)C(CCC2=C1)c5ccc(Cl)cc5

> <prot_variant_index>
3

> <minimizedAffinity>
0.00000

> <CNNscore>
0.2742208838

> <CNNaffinity>
3.1795196533

> <CNN_VS>
0.8718906641

> <CNNaffinity_variance>
0.9282369614

$$$$
LSD__p3


 31 35  0  0  0  0  0  0  0  0999 V2000
   -4.3010    1.3699    4.6548 C   0  0  0  0  0  0  0  0  0  0  0  0
   -3.7473    2.1936    3.4900 N   0  0  0  0  0  0  0  0  0  0  0  0
   -4.6794    2.1534    2.3996 C   0  0  0  0  0  0  0  0  0  0  0  0
   -4.3834    2.7635    1.2401 C   0  0  0  0  0  0  0  0  0  0  0  0
   -5.0216    2.2792   -0.0484 C   0  0  0  0  0  0  0  0  0  0  0  0
   -4.0009    1.3473   -0.7510 C   0  0  0  0  0  0  0  0  0  0  0  0
   -2.5343    1.8899   -0.7926 C   0  0  0  0  0  0  0  0  0  0  0  0
   -2.1528    2.4766    0.6023 N   0  0  0  0  0  0  0  0  0  0  0  0
   -1.9402    1.3985    1.6750 C   0  0  0  0  0  0  0  0  0  0  0  0
   -2.2939    1.7656    3.1538 C   0  0  0  0  0  0  0  0  0  0  0  0
   -3.1532    3.5592    0.9194 C   0  0  0  0  0  0  0  0  0  0  0  0
   -3.7287    3.1399    3.9016 H   0  0  0  0  0  0  0  0  0  0  0  0
   -1.2398    2.9331    0.4424 H   0  0  0  0  0  0  0  0  0  0  0  0
   -1.4500    0.9619   -1.3078 C   0  0  0  0  0  0  0  0  0  0  0  0
   -1.6511   -0.4086   -1.5369 C   0  0  0  0  0  0  0  0  0  0  0  0
   -0.6003   -1.2208   -1.9792 C   0  0  0  0  0  0  0  0  0  0  0  0
    0.6607   -0.6755   -2.2009 C   0  0  0  0  0  0  0  0  0  0  0  0
    1.9475   -1.6802   -2.7318 Cl  0  0  0  0  0  0  0  0  0  0  0  0
    0.8801    0.6813   -1.9913 C   0  0  0  0  0  0  0  0  0  0  0  0
   -0.1666    1.4955   -1.5500 C   0  0  0  0  0  0  0  0  0  0  0  0
   -2.6166    4.6951    1.8317 C   0  0  0  0  0  0  0  0  0  0  0  0
   -1.1528    4.9580    1.6389 C   0  0  0  0  0  0  0  0  0  0  0  0
   -0.1760    4.9025    2.6152 C   0  0  0  0  0  0  0  0  0  0  0  0
    1.0379    5.1605    2.0295 N   0  0  0  0  0  0  0  0  0  0  0  0
    0.8757    5.3370    0.6762 C   0  0  0  0  0  0  0  0  0  0  0  0
    1.8357    5.5764   -0.3130 C   0  0  0  0  0  0  0  0  0  0  0  0
    1.3850    5.7763   -1.6192 C   0  0  0  0  0  0  0  0  0  0  0  0
    0.0265    5.7554   -1.9183 C   0  0  0  0  0  0  0  0  0  0  0  0
   -0.9217    5.5159   -0.9167 C   0  0  0  0  0  0  0  0  0  0  0  0
   -0.4913    5.2836    0.4072 C   0  0  0  0  0  0  0  0  0  0  0  0
    1.9280    5.2291    2.5106 H   0  0  0  0  0  0  0  0  0  0  0  0
  1  2  1  0
  2  3  1  0
  3  4  2  0
  4  5  1  0
  5  6  1  0
  6  7  1  0
  7 14  1  0
 14 15  2  0
 15 16  1  0
 16 17  2  0
 17 18  1  0
 17 19  1  0
 19 20  2  0
  7  8  1  0
  8  9  1  0
  9 10  1  0
  8 11  1  0
 11 21  1  0
 21 22  1  0
 22 23  2  0
 23 24  1  0
 24 25  1  0
 25 26  2  0
 26 27  1  0
 27 28  2  0
 28 29  1  0
 29 30  2  0
 10  2  1  0
 30 22  1  0
 11  4  1  0
 30 25  1  0
 20 14  1  0
  2 12  1  0
  8 13  1  0
 24 31  1  0
M  CHG 1   2   1
M  CHG 1   8   1
M  END
> <input_smiles>
CN1CCN(C2CC3=CNC4=CC=CC=C34)C(CCC2=C1)c5ccc(Cl)cc5

> <prot_variant_index>
3

> <minimizedAffinity>
0.00000

> <CNNscore>
0.2699842751

> <CNNaffinity>
3.3751354218

> <CNN_VS>
0.9112334847

> <CNNaffinity_variance>
1.1004991531

$$$$
LSD__p3


 31 35  0  0  0  0  0  0  0  0999 V2000
   -2.9691   -1.1903    6.4344 C   0  0  0  0  0  0  0  0  0  0  0  0
   -2.4261   -0.4977    5.1826 N   0  0  0  0  0  0  0  0  0  0  0  0
   -3.5036   -0.2791    4.2603 C   0  0  0  0  0  0  0  0  0  0  0  0
   -3.2587    0.2697    3.0590 C   0  0  0  0  0  0  0  0  0  0  0  0
   -4.1971   -0.0090    1.8998 C   0  0  0  0  0  0  0  0  0  0  0  0
   -3.5658   -1.1444    1.0534 C   0  0  0  0  0  0  0  0  0  0  0  0
   -2.0375   -0.9779    0.7641 C   0  0  0  0  0  0  0  0  0  0  0  0
   -1.3018   -0.5396    2.0688 N   0  0  0  0  0  0  0  0  0  0  0  0
   -1.1904   -1.6646    3.1081 C   0  0  0  0  0  0  0  0  0  0  0  0
   -1.1977   -1.2607    4.6192 C   0  0  0  0  0  0  0  0  0  0  0  0
   -1.9391    0.7469    2.5293 C   0  0  0  0  0  0  0  0  0  0  0  0
   -2.1082    0.4039    5.5714 H   0  0  0  0  0  0  0  0  0  0  0  0
   -0.3429   -0.3173    1.7547 H   0  0  0  0  0  0  0  0  0  0  0  0
   -1.3141   -2.1299    0.0921 C   0  0  0  0  0  0  0  0  0  0  0  0
    0.0093   -2.0469   -0.3694 C   0  0  0  0  0  0  0  0  0  0  0  0
    0.6107   -3.1340   -1.0143 C   0  0  0  0  0  0  0  0  0  0  0  0
   -0.0989   -4.3162   -1.2033 C   0  0  0  0  0  0  0  0  0  0  0  0
    0.6413   -5.6410   -2.0057 Cl  0  0  0  0  0  0  0  0  0  0  0  0
   -1.4069   -4.4249   -0.7447 C   0  0  0  0  0  0  0  0  0  0  0  0
   -2.0107   -3.3417   -0.1001 C   0  0  0  0  0  0  0  0  0  0  0  0
   -0.9982    1.6918    3.3244 C   0  0  0  0  0  0  0  0  0  0  0  0
   -1.5465    3.0806    3.4652 C   0  0  0  0  0  0  0  0  0  0  0  0
   -1.4183    4.1076    2.5493 C   0  0  0  0  0  0  0  0  0  0  0  0
   -2.0972    5.2010    3.0256 N   0  0  0  0  0  0  0  0  0  0  0  0
   -2.7074    4.8895    4.2170 C   0  0  0  0  0  0  0  0  0  0  0  0
   -3.5308    5.6766    5.0293 C   0  0  0  0  0  0  0  0  0  0  0  0
   -3.9758    5.1231    6.2314 C   0  0  0  0  0  0  0  0  0  0  0  0
   -3.5959    3.8401    6.6122 C   0  0  0  0  0  0  0  0  0  0  0  0
   -2.7701    3.0657    5.7887 C   0  0  0  0  0  0  0  0  0  0  0  0
   -2.3284    3.5912    4.5554 C   0  0  0  0  0  0  0  0  0  0  0  0
   -2.1398    6.1133    2.5848 H   0  0  0  0  0  0  0  0  0  0  0  0
  1  2  1  0
  2  3  1  0
  3  4  2  0
  4  5  1  0
  5  6  1  0
  6  7  1  0
  7 14  1  0
 14 15  2  0
 15 16  1  0
 16 17  2  0
 17 18  1  0
 17 19  1  0
 19 20  2  0
  7  8  1  0
  8  9  1  0
  9 10  1  0
  8 11  1  0
 11 21  1  0
 21 22  1  0
 22 23  2  0
 23 24  1  0
 24 25  1  0
 25 26  2  0
 26 27  1  0
 27 28  2  0
 28 29  1  0
 29 30  2  0
 10  2  1  0
 30 22  1  0
 11  4  1  0
 30 25  1  0
 20 14  1  0
  2 12  1  0
  8 13  1  0
 24 31  1  0
M  CHG 1   2   1
M  CHG 1   8   1
M  END
> <input_smiles>
CN1CCN(C2CC3=CNC4=CC=CC=C34)C(CCC2=C1)c5ccc(Cl)cc5

> <prot_variant_index>
3

> <minimizedAffinity>
0.00000

> <CNNscore>
0.2673074007

> <CNNaffinity>
3.1226615906

> <CNN_VS>
0.8347105384

> <CNNaffinity_variance>
1.0429718494

$$$$
