DMT_like


 16 17  0  0  0  0  0  0  0  0999 V2000
  -29.2936  -10.6820  139.7331 C   0  0  0  0  0  0  0  0  0  0  0  0
  -30.5008  -10.2932  140.2798 C   0  0  0  0  0  0  0  0  0  0  0  0
  -31.4842  -10.5098  139.3499 N   0  0  0  0  0  0  0  0  0  0  0  0
  -30.9429  -11.0462  138.2056 C   0  0  0  0  0  0  0  0  0  0  0  0
  -31.5664  -11.4308  137.0129 C   0  0  0  0  0  0  0  0  0  0  0  0
  -30.7578  -11.9409  135.9942 C   0  0  0  0  0  0  0  0  0  0  0  0
  -29.3809  -12.0574  136.1627 C   0  0  0  0  0  0  0  0  0  0  0  0
  -28.7727  -11.6683  137.3621 C   0  0  0  0  0  0  0  0  0  0  0  0
  -29.5674  -11.1550  138.4087 C   0  0  0  0  0  0  0  0  0  0  0  0
  -32.4672  -10.3041  139.4747 H   0  0  0  0  0  0  0  0  0  0  0  0
  -27.9605  -10.6268  140.4012 C   0  0  0  0  0  0  0  0  0  0  0  0
  -27.9794  -11.3744  141.7381 C   0  0  0  0  0  0  0  0  0  0  0  0
  -27.1494  -13.4948  140.6349 C   0  0  0  0  0  0  0  0  0  0  0  0
  -26.9730  -12.5158  141.7635 N   0  0  0  0  0  0  0  0  0  0  0  0
  -26.9917  -13.2196  143.0959 C   0  0  0  0  0  0  0  0  0  0  0  0
  -26.0358  -12.1016  141.6685 H   0  0  0  0  0  0  0  0  0  0  0  0
 13 14  1  0
 14 15  1  0
 14 12  1  0
 12 11  1  0
 11  1  1  0
  1  2  2  0
  2  3  1  0
  3  4  1  0
  4  5  2  0
  5  6  1  0
  6  7  2  0
  7  8  1  0
  8  9  2  0
  9  1  1  0
  9  4  1  0
 14 16  1  0
  3 10  1  0
M  CHG 1  14   1
M  END
> <minimizedAffinity>
-6.94365

> <CNNscore>
0.6680362821

> <CNNaffinity>
4.8790297508

> <CNN_VS>
3.2593688965

> <CNNaffinity_variance>
0.1823977828

$$$$
DMT_like


 16 17  0  0  0  0  0  0  0  0999 V2000
  -31.4475   -9.9913  140.2159 C   0  0  0  0  0  0  0  0  0  0  0  0
  -32.4519  -10.4850  141.0250 C   0  0  0  0  0  0  0  0  0  0  0  0
  -32.5468   -9.6824  142.1320 N   0  0  0  0  0  0  0  0  0  0  0  0
  -31.6284   -8.6620  142.0561 C   0  0  0  0  0  0  0  0  0  0  0  0
  -31.3763   -7.6136  142.9485 C   0  0  0  0  0  0  0  0  0  0  0  0
  -30.3592   -6.7138  142.6205 C   0  0  0  0  0  0  0  0  0  0  0  0
  -29.6229   -6.8609  141.4483 C   0  0  0  0  0  0  0  0  0  0  0  0
  -29.8877   -7.9152  140.5661 C   0  0  0  0  0  0  0  0  0  0  0  0
  -30.9134   -8.8346  140.8712 C   0  0  0  0  0  0  0  0  0  0  0  0
  -33.1912   -9.8148  142.9009 H   0  0  0  0  0  0  0  0  0  0  0  0
  -31.0104  -10.5532  138.9045 C   0  0  0  0  0  0  0  0  0  0  0  0
  -29.4828  -10.5745  138.7924 C   0  0  0  0  0  0  0  0  0  0  0  0
  -27.5290  -12.1641  138.5518 C   0  0  0  0  0  0  0  0  0  0  0  0
  -28.9739  -11.8945  138.2312 N   0  0  0  0  0  0  0  0  0  0  0  0
  -29.2222  -11.9793  136.7473 C   0  0  0  0  0  0  0  0  0  0  0  0
  -29.5303  -12.6461  138.6609 H   0  0  0  0  0  0  0  0  0  0  0  0
 13 14  1  0
 14 15  1  0
 14 12  1  0
 12 11  1  0
 11  1  1  0
  1  2  2  0
  2  3  1  0
  3  4  1  0
  4  5  2  0
  5  6  1  0
  6  7  2  0
  7  8  1  0
  8  9  2  0
  9  1  1  0
  9  4  1  0
 14 16  1  0
  3 10  1  0
M  CHG 1  14   1
M  END
> <minimizedAffinity>
-6.42925

> <CNNscore>
0.6573898196

> <CNNaffinity>
5.2867159843

> <CNN_VS>
3.4754333496

> <CNNaffinity_variance>
0.0417354107

$$$$
DMT_like


 16 17  0  0  0  0  0  0  0  0999 V2000
  -28.6555  -11.6020  139.3417 C   0  0  0  0  0  0  0  0  0  0  0  0
  -29.3637  -12.2630  138.3573 C   0  0  0  0  0  0  0  0  0  0  0  0
  -30.5725  -11.6359  138.2018 N   0  0  0  0  0  0  0  0  0  0  0  0
  -30.6639  -10.5660  139.0603 C   0  0  0  0  0  0  0  0  0  0  0  0
  -31.7033   -9.6459  139.2397 C   0  0  0  0  0  0  0  0  0  0  0  0
  -31.5299   -8.6530  140.2071 C   0  0  0  0  0  0  0  0  0  0  0  0
  -30.3646   -8.5873  140.9658 C   0  0  0  0  0  0  0  0  0  0  0  0
  -29.3342   -9.5155  140.7739 C   0  0  0  0  0  0  0  0  0  0  0  0
  -29.4819  -10.5249  139.7994 C   0  0  0  0  0  0  0  0  0  0  0  0
  -31.3005  -11.9141  137.5562 H   0  0  0  0  0  0  0  0  0  0  0  0
  -27.2864  -11.9427  139.8275 C   0  0  0  0  0  0  0  0  0  0  0  0
  -27.3250  -13.1083  140.8207 C   0  0  0  0  0  0  0  0  0  0  0  0
  -26.3734  -13.8904  143.0308 C   0  0  0  0  0  0  0  0  0  0  0  0
  -26.7664  -12.7135  142.1802 N   0  0  0  0  0  0  0  0  0  0  0  0
  -27.7259  -11.8132  142.9149 C   0  0  0  0  0  0  0  0  0  0  0  0
  -25.9173  -12.1564  142.0136 H   0  0  0  0  0  0  0  0  0  0  0  0
 13 14  1  0
 14 15  1  0
 14 12  1  0
 12 11  1  0
 11  1  1  0
  1  2  2  0
  2  3  1  0
  3  4  1  0
  4  5  2  0
  5  6  1  0
  6  7  2  0
  7  8  1  0
  8  9  2  0
  9  1  1  0
  9  4  1  0
 14 16  1  0
  3 10  1  0
M  CHG 1  14   1
M  END
> <minimizedAffinity>
-6.19845

> <CNNscore>
0.6438814998

> <CNNaffinity>
5.0988388062

> <CNN_VS>
3.2830479145

> <CNNaffinity_variance>
0.0219854135

$$$$
DMT_like


 16 17  0  0  0  0  0  0  0  0999 V2000
  -28.9087  -10.6999  140.1380 C   0  0  0  0  0  0  0  0  0  0  0  0
  -27.5821  -11.0401  139.9596 C   0  0  0  0  0  0  0  0  0  0  0  0
  -27.4420  -11.5869  138.7106 N   0  0  0  0  0  0  0  0  0  0  0  0
  -28.6539  -11.5997  138.0615 C   0  0  0  0  0  0  0  0  0  0  0  0
  -28.9796  -12.0537  136.7782 C   0  0  0  0  0  0  0  0  0  0  0  0
  -30.3139  -11.9565  136.3757 C   0  0  0  0  0  0  0  0  0  0  0  0
  -31.2822  -11.4295  137.2256 C   0  0  0  0  0  0  0  0  0  0  0  0
  -30.9399  -10.9796  138.5064 C   0  0  0  0  0  0  0  0  0  0  0  0
  -29.5983  -11.0615  138.9353 C   0  0  0  0  0  0  0  0  0  0  0  0
  -26.5788  -11.9377  138.3157 H   0  0  0  0  0  0  0  0  0  0  0  0
  -29.5052  -10.0678  141.3509 C   0  0  0  0  0  0  0  0  0  0  0  0
  -29.7759   -8.5774  141.1227 C   0  0  0  0  0  0  0  0  0  0  0  0
  -31.3819   -6.8200  141.9793 C   0  0  0  0  0  0  0  0  0  0  0  0
  -31.2210   -8.2104  141.4281 N   0  0  0  0  0  0  0  0  0  0  0  0
  -31.8530   -9.2292  142.3411 C   0  0  0  0  0  0  0  0  0  0  0  0
  -31.7428   -8.2530  140.5422 H   0  0  0  0  0  0  0  0  0  0  0  0
 13 14  1  0
 14 15  1  0
 14 12  1  0
 12 11  1  0
 11  1  1  0
  1  2  2  0
  2  3  1  0
  3  4  1  0
  4  5  2  0
  5  6  1  0
  6  7  2  0
  7  8  1  0
  8  9  2  0
  9  1  1  0
  9  4  1  0
 14 16  1  0
  3 10  1  0
M  CHG 1  14   1
M  END
> <minimizedAffinity>
-7.13968

> <CNNscore>
0.5683318377

> <CNNaffinity>
4.8398146629

> <CNN_VS>
2.7506208420

> <CNNaffinity_variance>
0.0691856220

$$$$
DMT_like


 16 17  0  0  0  0  0  0  0  0999 V2000
  -29.2858  -10.8278  140.1362 C   0  0  0  0  0  0  0  0  0  0  0  0
  -30.4827  -10.3352  140.6182 C   0  0  0  0  0  0  0  0  0  0  0  0
  -31.4183  -10.4251  139.6206 N   0  0  0  0  0  0  0  0  0  0  0  0
  -30.8573  -10.9804  138.4950 C   0  0  0  0  0  0  0  0  0  0  0  0
  -31.4346  -11.2662  137.2523 C   0  0  0  0  0  0  0  0  0  0  0  0
  -30.6141  -11.8259  136.2700 C   0  0  0  0  0  0  0  0  0  0  0  0
  -29.2697  -12.0851  136.5214 C   0  0  0  0  0  0  0  0  0  0  0  0
  -28.7075  -11.7935  137.7700 C   0  0  0  0  0  0  0  0  0  0  0  0
  -29.5159  -11.2329  138.7813 C   0  0  0  0  0  0  0  0  0  0  0  0
  -32.3823  -10.1251  139.6898 H   0  0  0  0  0  0  0  0  0  0  0  0
  -28.0014  -10.9260  140.8893 C   0  0  0  0  0  0  0  0  0  0  0  0
  -28.2487  -10.9983  142.3993 C   0  0  0  0  0  0  0  0  0  0  0  0
  -26.9827  -12.8265  143.6063 C   0  0  0  0  0  0  0  0  0  0  0  0
  -26.9908  -11.3894  143.1616 N   0  0  0  0  0  0  0  0  0  0  0  0
  -26.7583  -10.4627  144.3269 C   0  0  0  0  0  0  0  0  0  0  0  0
  -26.1927  -11.2593  142.5251 H   0  0  0  0  0  0  0  0  0  0  0  0
 13 14  1  0
 14 15  1  0
 14 12  1  0
 12 11  1  0
 11  1  1  0
  1  2  2  0
  2  3  1  0
  3  4  1  0
  4  5  2  0
  5  6  1  0
  6  7  2  0
  7  8  1  0
  8  9  2  0
  9  1  1  0
  9  4  1  0
 14 16  1  0
  3 10  1  0
M  CHG 1  14   1
M  END
> <minimizedAffinity>
-7.02148

> <CNNscore>
0.5577065349

> <CNNaffinity>
4.5150771141

> <CNN_VS>
2.5180881023

> <CNNaffinity_variance>
0.2489532232

$$$$
DMT_like


 16 17  0  0  0  0  0  0  0  0999 V2000
  -30.8625  -10.0812  139.9210 C   0  0  0  0  0  0  0  0  0  0  0  0
  -31.9442   -9.2293  139.8138 C   0  0  0  0  0  0  0  0  0  0  0  0
  -32.1404   -8.6273  141.0294 N   0  0  0  0  0  0  0  0  0  0  0  0
  -31.1966   -9.0616  141.9298 C   0  0  0  0  0  0  0  0  0  0  0  0
  -31.0096   -8.7124  143.2722 C   0  0  0  0  0  0  0  0  0  0  0  0
  -29.9628   -9.3285  143.9623 C   0  0  0  0  0  0  0  0  0  0  0  0
  -29.1396  -10.2587  143.3339 C   0  0  0  0  0  0  0  0  0  0  0  0
  -29.3399  -10.5970  141.9902 C   0  0  0  0  0  0  0  0  0  0  0  0
  -30.3868   -9.9850  141.2690 C   0  0  0  0  0  0  0  0  0  0  0  0
  -32.8725   -7.9628  141.2452 H   0  0  0  0  0  0  0  0  0  0  0  0
  -30.2945  -10.9319  138.8347 C   0  0  0  0  0  0  0  0  0  0  0  0
  -31.2724  -11.0600  137.6626 C   0  0  0  0  0  0  0  0  0  0  0  0
  -29.3280  -11.9138  136.2871 C   0  0  0  0  0  0  0  0  0  0  0  0
  -30.7862  -12.0622  136.6256 N   0  0  0  0  0  0  0  0  0  0  0  0
  -31.6370  -12.0057  135.3830 C   0  0  0  0  0  0  0  0  0  0  0  0
  -30.9163  -13.0027  137.0224 H   0  0  0  0  0  0  0  0  0  0  0  0
 13 14  1  0
 14 15  1  0
 14 12  1  0
 12 11  1  0
 11  1  1  0
  1  2  2  0
  2  3  1  0
  3  4  1  0
  4  5  2  0
  5  6  1  0
  6  7  2  0
  7  8  1  0
  8  9  2  0
  9  1  1  0
  9  4  1  0
 14 16  1  0
  3 10  1  0
M  CHG 1  14   1
M  END
> <minimizedAffinity>
-6.62162

> <CNNscore>
0.5552425981

> <CNNaffinity>
5.7979183197

> <CNN_VS>
3.2192511559

> <CNNaffinity_variance>
0.7520207763

$$$$
DMT_like


 16 17  0  0  0  0  0  0  0  0999 V2000
  -28.4395  -10.8952  140.1697 C   0  0  0  0  0  0  0  0  0  0  0  0
  -27.2291  -11.4362  139.7830 C   0  0  0  0  0  0  0  0  0  0  0  0
  -27.3731  -11.9575  138.5236 N   0  0  0  0  0  0  0  0  0  0  0  0
  -28.6561  -11.7560  138.0725 C   0  0  0  0  0  0  0  0  0  0  0  0
  -29.2444  -12.1103  136.8528 C   0  0  0  0  0  0  0  0  0  0  0  0
  -30.5909  -11.7888  136.6653 C   0  0  0  0  0  0  0  0  0  0  0  0
  -31.3187  -11.1423  137.6604 C   0  0  0  0  0  0  0  0  0  0  0  0
  -30.7152  -10.7946  138.8749 C   0  0  0  0  0  0  0  0  0  0  0  0
  -29.3550  -11.1030  139.0874 C   0  0  0  0  0  0  0  0  0  0  0  0
  -26.6493  -12.4281  137.9956 H   0  0  0  0  0  0  0  0  0  0  0  0
  -28.7320  -10.2160  141.4657 C   0  0  0  0  0  0  0  0  0  0  0  0
  -28.6563  -11.2007  142.6367 C   0  0  0  0  0  0  0  0  0  0  0  0
  -26.9193  -12.7607  143.6119 C   0  0  0  0  0  0  0  0  0  0  0  0
  -27.2325  -11.3640  143.1488 N   0  0  0  0  0  0  0  0  0  0  0  0
  -26.9306  -10.3572  144.2287 C   0  0  0  0  0  0  0  0  0  0  0  0
  -26.5981  -11.1489  142.3676 H   0  0  0  0  0  0  0  0  0  0  0  0
 13 14  1  0
 14 15  1  0
 14 12  1  0
 12 11  1  0
 11  1  1  0
  1  2  2  0
  2  3  1  0
  3  4  1  0
  4  5  2  0
  5  6  1  0
  6  7  2  0
  7  8  1  0
  8  9  2  0
  9  1  1  0
  9  4  1  0
 14 16  1  0
  3 10  1  0
M  CHG 1  14   1
M  END
> <minimizedAffinity>
-6.88627

> <CNNscore>
0.5351545811

> <CNNaffinity>
4.2764687538

> <CNN_VS>
2.2885718346

> <CNNaffinity_variance>
0.4284353554

$$$$
DMT_like


 16 17  0  0  0  0  0  0  0  0999 V2000
  -28.9290  -10.0183  140.4789 C   0  0  0  0  0  0  0  0  0  0  0  0
  -28.7636  -10.9101  141.5204 C   0  0  0  0  0  0  0  0  0  0  0  0
  -29.2759  -10.3431  142.6583 N   0  0  0  0  0  0  0  0  0  0  0  0
  -29.7863   -9.0978  142.3774 C   0  0  0  0  0  0  0  0  0  0  0  0
  -30.4079   -8.1714  143.2226 C   0  0  0  0  0  0  0  0  0  0  0  0
  -30.8226   -6.9603  142.6632 C   0  0  0  0  0  0  0  0  0  0  0  0
  -30.6194   -6.6876  141.3133 C   0  0  0  0  0  0  0  0  0  0  0  0
  -29.9960   -7.6252  140.4812 C   0  0  0  0  0  0  0  0  0  0  0  0
  -29.5726   -8.8584  141.0202 C   0  0  0  0  0  0  0  0  0  0  0  0
  -29.2789  -10.7678  143.5768 H   0  0  0  0  0  0  0  0  0  0  0  0
  -28.5216  -10.2298  139.0591 C   0  0  0  0  0  0  0  0  0  0  0  0
  -28.5538  -11.7160  138.6890 C   0  0  0  0  0  0  0  0  0  0  0  0
  -29.2810  -11.9082  136.2732 C   0  0  0  0  0  0  0  0  0  0  0  0
  -29.6816  -12.0340  137.7178 N   0  0  0  0  0  0  0  0  0  0  0  0
  -30.8990  -11.1970  138.0149 C   0  0  0  0  0  0  0  0  0  0  0  0
  -29.9576  -13.0125  137.8770 H   0  0  0  0  0  0  0  0  0  0  0  0
 13 14  1  0
 14 15  1  0
 14 12  1  0
 12 11  1  0
 11  1  1  0
  1  2  2  0
  2  3  1  0
  3  4  1  0
  4  5  2  0
  5  6  1  0
  6  7  2  0
  7  8  1  0
  8  9  2  0
  9  1  1  0
  9  4  1  0
 14 16  1  0
  3 10  1  0
M  CHG 1  14   1
M  END
> <minimizedAffinity>
-6.07299

> <CNNscore>
0.5255316496

> <CNNaffinity>
5.3647608757

> <CNN_VS>
2.8193516731

> <CNNaffinity_variance>
0.1172882542

$$$$
DMT_like


 16 17  0  0  0  0  0  0  0  0999 V2000
  -28.9804  -10.8245  140.1465 C   0  0  0  0  0  0  0  0  0  0  0  0
  -27.8773  -11.6473  140.2628 C   0  0  0  0  0  0  0  0  0  0  0  0
  -27.5225  -11.7074  141.5854 N   0  0  0  0  0  0  0  0  0  0  0  0
  -28.3832  -10.9466  142.3408 C   0  0  0  0  0  0  0  0  0  0  0  0
  -28.4073  -10.7242  143.7224 C   0  0  0  0  0  0  0  0  0  0  0  0
  -29.4016   -9.8820  144.2260 C   0  0  0  0  0  0  0  0  0  0  0  0
  -30.3311   -9.2845  143.3794 C   0  0  0  0  0  0  0  0  0  0  0  0
  -30.2934   -9.5174  141.9994 C   0  0  0  0  0  0  0  0  0  0  0  0
  -29.3026  -10.3684  141.4659 C   0  0  0  0  0  0  0  0  0  0  0  0
  -26.7407  -12.2284  141.9614 H   0  0  0  0  0  0  0  0  0  0  0  0
  -29.7023  -10.4845  138.8856 C   0  0  0  0  0  0  0  0  0  0  0  0
  -30.7562  -11.5436  138.5478 C   0  0  0  0  0  0  0  0  0  0  0  0
  -29.1151  -11.8808  136.6517 C   0  0  0  0  0  0  0  0  0  0  0  0
  -30.4582  -12.2387  137.2270 N   0  0  0  0  0  0  0  0  0  0  0  0
  -31.5575  -11.9878  136.2274 C   0  0  0  0  0  0  0  0  0  0  0  0
  -30.4565  -13.2520  137.4065 H   0  0  0  0  0  0  0  0  0  0  0  0
 13 14  1  0
 14 15  1  0
 14 12  1  0
 12 11  1  0
 11  1  1  0
  1  2  2  0
  2  3  1  0
  3  4  1  0
  4  5  2  0
  5  6  1  0
  6  7  2  0
  7  8  1  0
  8  9  2  0
  9  1  1  0
  9  4  1  0
 14 16  1  0
  3 10  1  0
M  CHG 1  14   1
M  END
> <minimizedAffinity>
-6.18230

> <CNNscore>
0.5253564715

> <CNNaffinity>
5.3811278343

> <CNN_VS>
2.8270103931

> <CNNaffinity_variance>
0.1224652454

$$$$
DMT_like


 16 17  0  0  0  0  0  0  0  0999 V2000
  -28.4492  -14.8609  146.2036 C   0  0  0  0  0  0  0  0  0  0  0  0
  -29.0149  -13.6181  145.9966 C   0  0  0  0  0  0  0  0  0  0  0  0
  -29.9265  -13.3885  146.9940 N   0  0  0  0  0  0  0  0  0  0  0  0
  -29.9592  -14.4561  147.8596 C   0  0  0  0  0  0  0  0  0  0  0  0
  -30.7264  -14.6524  149.0137 C   0  0  0  0  0  0  0  0  0  0  0  0
  -30.5635  -15.8565  149.7031 C   0  0  0  0  0  0  0  0  0  0  0  0
  -29.6712  -16.8253  149.2525 C   0  0  0  0  0  0  0  0  0  0  0  0
  -28.9110  -16.6133  148.0961 C   0  0  0  0  0  0  0  0  0  0  0  0
  -29.0526  -15.4034  147.3844 C   0  0  0  0  0  0  0  0  0  0  0  0
  -30.5005  -12.5602  147.0868 H   0  0  0  0  0  0  0  0  0  0  0  0
  -27.4021  -15.5086  145.3605 C   0  0  0  0  0  0  0  0  0  0  0  0
  -25.9960  -15.1608  145.8589 C   0  0  0  0  0  0  0  0  0  0  0  0
  -25.6920  -14.0720  143.5953 C   0  0  0  0  0  0  0  0  0  0  0  0
  -25.0478  -14.8507  144.7096 N   0  0  0  0  0  0  0  0  0  0  0  0
  -24.4064  -16.1103  144.1870 C   0  0  0  0  0  0  0  0  0  0  0  0
  -24.2846  -14.2733  145.0879 H   0  0  0  0  0  0  0  0  0  0  0  0
 13 14  1  0
 14 15  1  0
 14 12  1  0
 12 11  1  0
 11  1  1  0
  1  2  2  0
  2  3  1  0
  3  4  1  0
  4  5  2  0
  5  6  1  0
  6  7  2  0
  7  8  1  0
  8  9  2  0
  9  1  1  0
  9  4  1  0
 14 16  1  0
  3 10  1  0
M  CHG 1  14   1
M  END
> <minimizedAffinity>
-6.06280

> <CNNscore>
0.5161013603

> <CNNaffinity>
3.8954021931

> <CNN_VS>
2.0104224682

> <CNNaffinity_variance>
1.1815778017

$$$$
DMT_like


 16 17  0  0  0  0  0  0  0  0999 V2000
  -29.4220  -15.3980  148.0126 C   0  0  0  0  0  0  0  0  0  0  0  0
  -29.5932  -14.2741  147.2283 C   0  0  0  0  0  0  0  0  0  0  0  0
  -30.6122  -13.5283  147.7613 N   0  0  0  0  0  0  0  0  0  0  0  0
  -31.1044  -14.1390  148.8905 C   0  0  0  0  0  0  0  0  0  0  0  0
  -32.1301  -13.7364  149.7536 C   0  0  0  0  0  0  0  0  0  0  0  0
  -32.4342  -14.5706  150.8322 C   0  0  0  0  0  0  0  0  0  0  0  0
  -31.7414  -15.7609  151.0351 C   0  0  0  0  0  0  0  0  0  0  0  0
  -30.7179  -16.1492  150.1625 C   0  0  0  0  0  0  0  0  0  0  0  0
  -30.3873  -15.3218  149.0685 C   0  0  0  0  0  0  0  0  0  0  0  0
  -30.9624  -12.6568  147.3846 H   0  0  0  0  0  0  0  0  0  0  0  0
  -28.4157  -16.4795  147.8020 C   0  0  0  0  0  0  0  0  0  0  0  0
  -27.2132  -15.9693  147.0020 C   0  0  0  0  0  0  0  0  0  0  0  0
  -24.8486  -16.5770  147.6665 C   0  0  0  0  0  0  0  0  0  0  0  0
  -26.0955  -17.0004  146.9390 N   0  0  0  0  0  0  0  0  0  0  0  0
  -25.7872  -17.3727  145.5117 C   0  0  0  0  0  0  0  0  0  0  0  0
  -26.4413  -17.8567  147.3929 H   0  0  0  0  0  0  0  0  0  0  0  0
 13 14  1  0
 14 15  1  0
 14 12  1  0
 12 11  1  0
 11  1  1  0
  1  2  2  0
  2  3  1  0
  3  4  1  0
  4  5  2  0
  5  6  1  0
  6  7  2  0
  7  8  1  0
  8  9  2  0
  9  1  1  0
  9  4  1  0
 14 16  1  0
  3 10  1  0
M  CHG 1  14   1
M  END
> <minimizedAffinity>
-6.04281

> <CNNscore>
0.5133252740

> <CNNaffinity>
3.5139944553

> <CNN_VS>
1.8038221598

> <CNNaffinity_variance>
1.2135201693

$$$$
DMT_like


 16 17  0  0  0  0  0  0  0  0999 V2000
  -30.2701  -10.2975  139.5565 C   0  0  0  0  0  0  0  0  0  0  0  0
  -29.1283  -10.8872  140.0624 C   0  0  0  0  0  0  0  0  0  0  0  0
  -28.7560  -10.2057  141.1918 N   0  0  0  0  0  0  0  0  0  0  0  0
  -29.6427   -9.1854  141.4422 C   0  0  0  0  0  0  0  0  0  0  0  0
  -29.6613   -8.2474  142.4809 C   0  0  0  0  0  0  0  0  0  0  0  0
  -30.6883   -7.3003  142.4805 C   0  0  0  0  0  0  0  0  0  0  0  0
  -31.6545   -7.2913  141.4784 C   0  0  0  0  0  0  0  0  0  0  0  0
  -31.6217   -8.2367  140.4463 C   0  0  0  0  0  0  0  0  0  0  0  0
  -30.5982   -9.2075  140.4265 C   0  0  0  0  0  0  0  0  0  0  0  0
  -27.9462  -10.4117  141.7628 H   0  0  0  0  0  0  0  0  0  0  0  0
  -31.0215  -10.7231  138.3396 C   0  0  0  0  0  0  0  0  0  0  0  0
  -30.6500  -12.1518  137.9305 C   0  0  0  0  0  0  0  0  0  0  0  0
  -29.5390  -11.8077  135.6834 C   0  0  0  0  0  0  0  0  0  0  0  0
  -30.7315  -12.3492  136.4236 N   0  0  0  0  0  0  0  0  0  0  0  0
  -32.0127  -11.7765  135.8748 C   0  0  0  0  0  0  0  0  0  0  0  0
  -30.7691  -13.3624  136.2479 H   0  0  0  0  0  0  0  0  0  0  0  0
 13 14  1  0
 14 15  1  0
 14 12  1  0
 12 11  1  0
 11  1  1  0
  1  2  2  0
  2  3  1  0
  3  4  1  0
  4  5  2  0
  5  6  1  0
  6  7  2  0
  7  8  1  0
  8  9  2  0
  9  1  1  0
  9  4  1  0
 14 16  1  0
  3 10  1  0
M  CHG 1  14   1
M  END
> <minimizedAffinity>
-6.29483

> <CNNscore>
0.4876139462

> <CNNaffinity>
5.3095040321

> <CNN_VS>
2.5889883041

> <CNNaffinity_variance>
0.4418183863

$$$$
DMT_like


 16 17  0  0  0  0  0  0  0  0999 V2000
  -30.1283   -6.2965  141.9199 C   0  0  0  0  0  0  0  0  0  0  0  0
  -30.2618   -6.3955  140.5489 C   0  0  0  0  0  0  0  0  0  0  0  0
  -29.8911   -5.1990  139.9926 N   0  0  0  0  0  0  0  0  0  0  0  0
  -29.5045   -4.3199  140.9764 C   0  0  0  0  0  0  0  0  0  0  0  0
  -29.0459   -3.0016  140.8721 C   0  0  0  0  0  0  0  0  0  0  0  0
  -28.7322   -2.3291  142.0557 C   0  0  0  0  0  0  0  0  0  0  0  0
  -28.8756   -2.9509  143.2929 C   0  0  0  0  0  0  0  0  0  0  0  0
  -29.3355   -4.2703  143.3800 C   0  0  0  0  0  0  0  0  0  0  0  0
  -29.6540   -4.9737  142.1992 C   0  0  0  0  0  0  0  0  0  0  0  0
  -29.9011   -4.9818  139.0042 H   0  0  0  0  0  0  0  0  0  0  0  0
  -30.4160   -7.3685  142.9172 C   0  0  0  0  0  0  0  0  0  0  0  0
  -31.5780   -8.2549  142.4581 C   0  0  0  0  0  0  0  0  0  0  0  0
  -29.6453   -9.8779  142.2776 C   0  0  0  0  0  0  0  0  0  0  0  0
  -31.1376   -9.6938  142.2303 N   0  0  0  0  0  0  0  0  0  0  0  0
  -31.7072  -10.2330  140.9435 C   0  0  0  0  0  0  0  0  0  0  0  0
  -31.5424  -10.2626  142.9863 H   0  0  0  0  0  0  0  0  0  0  0  0
 13 14  1  0
 14 15  1  0
 14 12  1  0
 12 11  1  0
 11  1  1  0
  1  2  2  0
  2  3  1  0
  3  4  1  0
  4  5  2  0
  5  6  1  0
  6  7  2  0
  7  8  1  0
  8  9  2  0
  9  1  1  0
  9  4  1  0
 14 16  1  0
  3 10  1  0
M  CHG 1  14   1
M  END
> <minimizedAffinity>
-6.44764

> <CNNscore>
0.4863125086

> <CNNaffinity>
4.3481907845

> <CNN_VS>
2.1145796776

> <CNNaffinity_variance>
0.5310459733

$$$$
DMT_like


 16 17  0  0  0  0  0  0  0  0999 V2000
  -31.2763   -9.5577  140.1393 C   0  0  0  0  0  0  0  0  0  0  0  0
  -32.2835   -8.6693  140.4614 C   0  0  0  0  0  0  0  0  0  0  0  0
  -32.1544   -8.3332  141.7840 N   0  0  0  0  0  0  0  0  0  0  0  0
  -31.0707   -8.9778  142.3319 C   0  0  0  0  0  0  0  0  0  0  0  0
  -30.5612   -8.9275  143.6346 C   0  0  0  0  0  0  0  0  0  0  0  0
  -29.4389   -9.7082  143.9220 C   0  0  0  0  0  0  0  0  0  0  0  0
  -28.8537  -10.5089  142.9452 C   0  0  0  0  0  0  0  0  0  0  0  0
  -29.3756  -10.5479  141.6467 C   0  0  0  0  0  0  0  0  0  0  0  0
  -30.5052   -9.7646  141.3289 C   0  0  0  0  0  0  0  0  0  0  0  0
  -32.7646   -7.7073  142.2939 H   0  0  0  0  0  0  0  0  0  0  0  0
  -31.0350  -10.1757  138.8027 C   0  0  0  0  0  0  0  0  0  0  0  0
  -30.1449  -11.4170  138.9188 C   0  0  0  0  0  0  0  0  0  0  0  0
  -29.2572  -11.9072  136.6007 C   0  0  0  0  0  0  0  0  0  0  0  0
  -28.9584  -11.3547  137.9677 N   0  0  0  0  0  0  0  0  0  0  0  0
  -27.7512  -12.0268  138.5692 C   0  0  0  0  0  0  0  0  0  0  0  0
  -28.7092  -10.3630  137.8515 H   0  0  0  0  0  0  0  0  0  0  0  0
 13 14  1  0
 14 15  1  0
 14 12  1  0
 12 11  1  0
 11  1  1  0
  1  2  2  0
  2  3  1  0
  3  4  1  0
  4  5  2  0
  5  6  1  0
  6  7  2  0
  7  8  1  0
  8  9  2  0
  9  1  1  0
  9  4  1  0
 14 16  1  0
  3 10  1  0
M  CHG 1  14   1
M  END
> <minimizedAffinity>
-6.24411

> <CNNscore>
0.4856974781

> <CNNaffinity>
5.3042168617

> <CNN_VS>
2.5762448311

> <CNNaffinity_variance>
0.0859014615

$$$$
DMT_like


 16 17  0  0  0  0  0  0  0  0999 V2000
  -29.6349  -10.3811  140.6381 C   0  0  0  0  0  0  0  0  0  0  0  0
  -30.9480  -10.0029  140.8382 C   0  0  0  0  0  0  0  0  0  0  0  0
  -31.6638  -10.3204  139.7132 N   0  0  0  0  0  0  0  0  0  0  0  0
  -30.8434  -10.9125  138.7824 C   0  0  0  0  0  0  0  0  0  0  0  0
  -31.1417  -11.4015  137.5053 C   0  0  0  0  0  0  0  0  0  0  0  0
  -30.0944  -11.9484  136.7599 C   0  0  0  0  0  0  0  0  0  0  0  0
  -28.8009  -11.9998  137.2718 C   0  0  0  0  0  0  0  0  0  0  0  0
  -28.5191  -11.5063  138.5513 C   0  0  0  0  0  0  0  0  0  0  0  0
  -29.5601  -10.9538  139.3269 C   0  0  0  0  0  0  0  0  0  0  0  0
  -32.6508  -10.1448  139.5752 H   0  0  0  0  0  0  0  0  0  0  0  0
  -28.5120  -10.2288  141.6088 C   0  0  0  0  0  0  0  0  0  0  0  0
  -27.9685  -11.5927  142.0457 C   0  0  0  0  0  0  0  0  0  0  0  0
  -27.1674  -10.3723  144.1123 C   0  0  0  0  0  0  0  0  0  0  0  0
  -27.7229  -11.6507  143.5466 N   0  0  0  0  0  0  0  0  0  0  0  0
  -26.8470  -12.8240  143.9032 C   0  0  0  0  0  0  0  0  0  0  0  0
  -28.6310  -11.8195  144.0004 H   0  0  0  0  0  0  0  0  0  0  0  0
 13 14  1  0
 14 15  1  0
 14 12  1  0
 12 11  1  0
 11  1  1  0
  1  2  2  0
  2  3  1  0
  3  4  1  0
  4  5  2  0
  5  6  1  0
  6  7  2  0
  7  8  1  0
  8  9  2  0
  9  1  1  0
  9  4  1  0
 14 16  1  0
  3 10  1  0
M  CHG 1  14   1
M  END
> <minimizedAffinity>
-6.61541

> <CNNscore>
0.4689411521

> <CNNaffinity>
4.5250821114

> <CNN_VS>
2.1219971180

> <CNNaffinity_variance>
0.1788674146

$$$$
DMT_like


 16 17  0  0  0  0  0  0  0  0999 V2000
  -30.5823  -10.6971  139.4299 C   0  0  0  0  0  0  0  0  0  0  0  0
  -29.2502  -10.7408  139.7918 C   0  0  0  0  0  0  0  0  0  0  0  0
  -28.5282  -11.2021  138.7220 N   0  0  0  0  0  0  0  0  0  0  0  0
  -29.3643  -11.4503  137.6592 C   0  0  0  0  0  0  0  0  0  0  0  0
  -29.0672  -11.9190  136.3742 C   0  0  0  0  0  0  0  0  0  0  0  0
  -30.1314  -12.0943  135.4862 C   0  0  0  0  0  0  0  0  0  0  0  0
  -31.4396  -11.8150  135.8714 C   0  0  0  0  0  0  0  0  0  0  0  0
  -31.7199  -11.3467  137.1607 C   0  0  0  0  0  0  0  0  0  0  0  0
  -30.6625  -11.1558  138.0750 C   0  0  0  0  0  0  0  0  0  0  0  0
  -27.5268  -11.3473  138.7070 H   0  0  0  0  0  0  0  0  0  0  0  0
  -31.7183  -10.2484  140.2871 C   0  0  0  0  0  0  0  0  0  0  0  0
  -31.8725   -8.7248  140.2496 C   0  0  0  0  0  0  0  0  0  0  0  0
  -31.4341   -6.8445  141.8848 C   0  0  0  0  0  0  0  0  0  0  0  0
  -32.1412   -8.1481  141.6321 N   0  0  0  0  0  0  0  0  0  0  0  0
  -31.8182   -9.1542  142.7065 C   0  0  0  0  0  0  0  0  0  0  0  0
  -33.1522   -7.9682  141.6990 H   0  0  0  0  0  0  0  0  0  0  0  0
 13 14  1  0
 14 15  1  0
 14 12  1  0
 12 11  1  0
 11  1  1  0
  1  2  2  0
  2  3  1  0
  3  4  1  0
  4  5  2  0
  5  6  1  0
  6  7  2  0
  7  8  1  0
  8  9  2  0
  9  1  1  0
  9  4  1  0
 14 16  1  0
  3 10  1  0
M  CHG 1  14   1
M  END
> <minimizedAffinity>
-7.55918

> <CNNscore>
0.4504921138

> <CNNaffinity>
4.6535534859

> <CNN_VS>
2.0963890553

> <CNNaffinity_variance>
0.1226992607

$$$$
DMT_like


 16 17  0  0  0  0  0  0  0  0999 V2000
  -27.3088  -15.4398  145.1170 C   0  0  0  0  0  0  0  0  0  0  0  0
  -26.9445  -16.7599  145.2959 C   0  0  0  0  0  0  0  0  0  0  0  0
  -27.5915  -17.2385  146.4054 N   0  0  0  0  0  0  0  0  0  0  0  0
  -28.3845  -16.2566  146.9505 C   0  0  0  0  0  0  0  0  0  0  0  0
  -29.2212  -16.2985  148.0718 C   0  0  0  0  0  0  0  0  0  0  0  0
  -29.9099  -15.1312  148.4104 C   0  0  0  0  0  0  0  0  0  0  0  0
  -29.7634  -13.9689  147.6584 C   0  0  0  0  0  0  0  0  0  0  0  0
  -28.9225  -13.9437  146.5394 C   0  0  0  0  0  0  0  0  0  0  0  0
  -28.2197  -15.1108  146.1727 C   0  0  0  0  0  0  0  0  0  0  0  0
  -27.5022  -18.1742  146.7803 H   0  0  0  0  0  0  0  0  0  0  0  0
  -26.8463  -14.5340  144.0251 C   0  0  0  0  0  0  0  0  0  0  0  0
  -25.9278  -13.4351  144.5686 C   0  0  0  0  0  0  0  0  0  0  0  0
  -23.9875  -14.9305  143.9354 C   0  0  0  0  0  0  0  0  0  0  0  0
  -24.5262  -13.5266  143.9827 N   0  0  0  0  0  0  0  0  0  0  0  0
  -23.5781  -12.6092  144.7109 C   0  0  0  0  0  0  0  0  0  0  0  0
  -24.5748  -13.1824  143.0141 H   0  0  0  0  0  0  0  0  0  0  0  0
 13 14  1  0
 14 15  1  0
 14 12  1  0
 12 11  1  0
 11  1  1  0
  1  2  2  0
  2  3  1  0
  3  4  1  0
  4  5  2  0
  5  6  1  0
  6  7  2  0
  7  8  1  0
  8  9  2  0
  9  1  1  0
  9  4  1  0
 14 16  1  0
  3 10  1  0
M  CHG 1  14   1
M  END
> <minimizedAffinity>
-6.35672

> <CNNscore>
0.4437325597

> <CNNaffinity>
4.0096716881

> <CNN_VS>
1.7792218924

> <CNNaffinity_variance>
1.1229978800

$$$$
DMT_like


 16 17  0  0  0  0  0  0  0  0999 V2000
  -28.5216  -15.4301  146.3953 C   0  0  0  0  0  0  0  0  0  0  0  0
  -28.9320  -14.1824  145.9683 C   0  0  0  0  0  0  0  0  0  0  0  0
  -29.8419  -13.6962  146.8708 N   0  0  0  0  0  0  0  0  0  0  0  0
  -30.0259  -14.6002  147.8901 C   0  0  0  0  0  0  0  0  0  0  0  0
  -30.8470  -14.5223  149.0210 C   0  0  0  0  0  0  0  0  0  0  0  0
  -30.8473  -15.6100  149.8977 C   0  0  0  0  0  0  0  0  0  0  0  0
  -30.0600  -16.7308  149.6494 C   0  0  0  0  0  0  0  0  0  0  0  0
  -29.2439  -16.7929  148.5135 C   0  0  0  0  0  0  0  0  0  0  0  0
  -29.2212  -15.7054  147.6149 C   0  0  0  0  0  0  0  0  0  0  0  0
  -30.3182  -12.8059  146.8039 H   0  0  0  0  0  0  0  0  0  0  0  0
  -27.5309  -16.3162  145.7173 C   0  0  0  0  0  0  0  0  0  0  0  0
  -26.1217  -16.1033  146.2788 C   0  0  0  0  0  0  0  0  0  0  0  0
  -25.4556  -16.8043  148.6170 C   0  0  0  0  0  0  0  0  0  0  0  0
  -25.7000  -17.2406  147.1981 N   0  0  0  0  0  0  0  0  0  0  0  0
  -24.5011  -17.9649  146.6423 C   0  0  0  0  0  0  0  0  0  0  0  0
  -26.4690  -17.9242  147.2141 H   0  0  0  0  0  0  0  0  0  0  0  0
 13 14  1  0
 14 15  1  0
 14 12  1  0
 12 11  1  0
 11  1  1  0
  1  2  2  0
  2  3  1  0
  3  4  1  0
  4  5  2  0
  5  6  1  0
  6  7  2  0
  7  8  1  0
  8  9  2  0
  9  1  1  0
  9  4  1  0
 14 16  1  0
  3 10  1  0
M  CHG 1  14   1
M  END
> <minimizedAffinity>
-6.13027

> <CNNscore>
0.4239684045

> <CNNaffinity>
3.4789931774

> <CNN_VS>
1.4749832153

> <CNNaffinity_variance>
1.4516893625

$$$$
DMT_like


 16 17  0  0  0  0  0  0  0  0999 V2000
  -28.7063  -10.7074  141.8988 C   0  0  0  0  0  0  0  0  0  0  0  0
  -29.9910  -10.2104  141.9989 C   0  0  0  0  0  0  0  0  0  0  0  0
  -30.5927  -10.3221  140.7725 N   0  0  0  0  0  0  0  0  0  0  0  0
  -29.7270  -10.8960  139.8717 C   0  0  0  0  0  0  0  0  0  0  0  0
  -29.9146  -11.2067  138.5199 C   0  0  0  0  0  0  0  0  0  0  0  0
  -28.8429  -11.7814  137.8323 C   0  0  0  0  0  0  0  0  0  0  0  0
  -27.6320  -12.0310  138.4722 C   0  0  0  0  0  0  0  0  0  0  0  0
  -27.4607  -11.7144  139.8251 C   0  0  0  0  0  0  0  0  0  0  0  0
  -28.5293  -11.1382  140.5439 C   0  0  0  0  0  0  0  0  0  0  0  0
  -31.5340  -10.0244  140.5500 H   0  0  0  0  0  0  0  0  0  0  0  0
  -27.6998  -10.7871  142.9974 C   0  0  0  0  0  0  0  0  0  0  0  0
  -27.4731  -12.2369  143.4371 C   0  0  0  0  0  0  0  0  0  0  0  0
  -25.7397  -13.9205  144.1871 C   0  0  0  0  0  0  0  0  0  0  0  0
  -26.0339  -12.4801  143.8681 N   0  0  0  0  0  0  0  0  0  0  0  0
  -25.6593  -11.5849  145.0210 C   0  0  0  0  0  0  0  0  0  0  0  0
  -25.4276  -12.2084  143.0823 H   0  0  0  0  0  0  0  0  0  0  0  0
 13 14  1  0
 14 15  1  0
 14 12  1  0
 12 11  1  0
 11  1  1  0
  1  2  2  0
  2  3  1  0
  3  4  1  0
  4  5  2  0
  5  6  1  0
  6  7  2  0
  7  8  1  0
  8  9  2  0
  9  1  1  0
  9  4  1  0
 14 16  1  0
  3 10  1  0
M  CHG 1  14   1
M  END
> <minimizedAffinity>
-6.12420

> <CNNscore>
0.4032579958

> <CNNaffinity>
4.0968017578

> <CNN_VS>
1.6520680189

> <CNNaffinity_variance>
0.2703360021

$$$$
DMT_like


 16 17  0  0  0  0  0  0  0  0999 V2000
  -27.5004  -15.6128  145.3070 C   0  0  0  0  0  0  0  0  0  0  0  0
  -27.0155  -14.6466  144.4475 C   0  0  0  0  0  0  0  0  0  0  0  0
  -27.5628  -13.4410  144.8021 N   0  0  0  0  0  0  0  0  0  0  0  0
  -28.3899  -13.5987  145.8889 C   0  0  0  0  0  0  0  0  0  0  0  0
  -29.1438  -12.6490  146.5881 C   0  0  0  0  0  0  0  0  0  0  0  0
  -29.9171  -13.0980  147.6614 C   0  0  0  0  0  0  0  0  0  0  0  0
  -29.9369  -14.4437  148.0170 C   0  0  0  0  0  0  0  0  0  0  0  0
  -29.1769  -15.3811  147.3074 C   0  0  0  0  0  0  0  0  0  0  0  0
  -28.3829  -14.9528  146.2226 C   0  0  0  0  0  0  0  0  0  0  0  0
  -27.3937  -12.5586  144.3363 H   0  0  0  0  0  0  0  0  0  0  0  0
  -27.1604  -17.0656  145.2882 C   0  0  0  0  0  0  0  0  0  0  0  0
  -25.6438  -17.2793  145.2581 C   0  0  0  0  0  0  0  0  0  0  0  0
  -24.3674  -17.8302  147.3722 C   0  0  0  0  0  0  0  0  0  0  0  0
  -25.2038  -18.3573  146.2383 N   0  0  0  0  0  0  0  0  0  0  0  0
  -24.4965  -19.4788  145.5222 C   0  0  0  0  0  0  0  0  0  0  0  0
  -26.0547  -18.7667  146.6473 H   0  0  0  0  0  0  0  0  0  0  0  0
 13 14  1  0
 14 15  1  0
 14 12  1  0
 12 11  1  0
 11  1  1  0
  1  2  2  0
  2  3  1  0
  3  4  1  0
  4  5  2  0
  5  6  1  0
  6  7  2  0
  7  8  1  0
  8  9  2  0
  9  1  1  0
  9  4  1  0
 14 16  1  0
  3 10  1  0
M  CHG 1  14   1
M  END
> <minimizedAffinity>
-6.38609

> <CNNscore>
0.3947865665

> <CNNaffinity>
3.7339584827

> <CNN_VS>
1.4741166830

> <CNNaffinity_variance>
1.1273812056

$$$$
DMT_like


 15 16  0  0  0  0  0  0  0  0999 V2000
  -28.9226  -10.7000  140.1827 C   0  0  0  0  0  0  0  0  0  0  0  0
  -27.5948  -11.0404  140.0104 C   0  0  0  0  0  0  0  0  0  0  0  0
  -27.4464  -11.5762  138.7600 N   0  0  0  0  0  0  0  0  0  0  0  0
  -28.6541  -11.5942  138.1029 C   0  0  0  0  0  0  0  0  0  0  0  0
  -28.9748  -12.0463  136.8171 C   0  0  0  0  0  0  0  0  0  0  0  0
  -30.3071  -11.9414  136.4069 C   0  0  0  0  0  0  0  0  0  0  0  0
  -31.2772  -11.4064  137.2507 C   0  0  0  0  0  0  0  0  0  0  0  0
  -30.9389  -10.9593  138.5332 C   0  0  0  0  0  0  0  0  0  0  0  0
  -29.6019  -11.0528  138.9718 C   0  0  0  0  0  0  0  0  0  0  0  0
  -26.5774  -11.9125  138.3697 H   0  0  0  0  0  0  0  0  0  0  0  0
  -29.5301  -10.0796  141.4052 C   0  0  0  0  0  0  0  0  0  0  0  0
  -29.8295   -8.5832  141.2052 C   0  0  0  0  0  0  0  0  0  0  0  0
  -31.3857   -6.8644  141.9574 C   0  0  0  0  0  0  0  0  0  0  0  0
  -31.2453   -8.2241  141.4326 N   0  0  0  0  0  0  0  0  0  0  0  0
  -31.8544   -9.1770  142.3652 C   0  0  0  0  0  0  0  0  0  0  0  0
 13 14  1  0
 14 15  1  0
 14 12  1  0
 12 11  1  0
 11  1  1  0
  1  2  2  0
  2  3  1  0
  3  4  1  0
  4  5  2  0
  5  6  1  0
  6  7  2  0
  7  8  1  0
  8  9  2  0
  9  1  1  0
  9  4  1  0
  3 10  1  0
M  END
> <minimizedAffinity>
-7.14474

> <CNNscore>
0.7321300507

> <CNNaffinity>
4.9883918762

> <CNN_VS>
3.6521515846

> <CNNaffinity_variance>
0.0220839661

$$$$
DMT_like


 15 16  0  0  0  0  0  0  0  0999 V2000
  -31.4080   -9.9383  140.1832 C   0  0  0  0  0  0  0  0  0  0  0  0
  -32.4156  -10.4415  140.9832 C   0  0  0  0  0  0  0  0  0  0  0  0
  -32.5233   -9.6460  142.0914 N   0  0  0  0  0  0  0  0  0  0  0  0
  -31.6044   -8.6247  142.0360 C   0  0  0  0  0  0  0  0  0  0  0  0
  -31.3570   -7.5839  142.9393 C   0  0  0  0  0  0  0  0  0  0  0  0
  -30.3432   -6.6759  142.6198 C   0  0  0  0  0  0  0  0  0  0  0  0
  -29.6080   -6.8063  141.4443 C   0  0  0  0  0  0  0  0  0  0  0  0
  -29.8688   -7.8532  140.5525 C   0  0  0  0  0  0  0  0  0  0  0  0
  -30.8866   -8.7828  140.8502 C   0  0  0  0  0  0  0  0  0  0  0  0
  -33.1810   -9.7839  142.8458 H   0  0  0  0  0  0  0  0  0  0  0  0
  -30.9526  -10.4985  138.8689 C   0  0  0  0  0  0  0  0  0  0  0  0
  -29.4204  -10.6242  138.7947 C   0  0  0  0  0  0  0  0  0  0  0  0
  -27.5396  -12.1564  138.5567 C   0  0  0  0  0  0  0  0  0  0  0  0
  -28.9550  -11.9226  138.2632 N   0  0  0  0  0  0  0  0  0  0  0  0
  -29.1716  -11.9711  136.8142 C   0  0  0  0  0  0  0  0  0  0  0  0
 13 14  1  0
 14 15  1  0
 14 12  1  0
 12 11  1  0
 11  1  1  0
  1  2  2  0
  2  3  1  0
  3  4  1  0
  4  5  2  0
  5  6  1  0
  6  7  2  0
  7  8  1  0
  8  9  2  0
  9  1  1  0
  9  4  1  0
  3 10  1  0
M  END
> <minimizedAffinity>
-6.46381

> <CNNscore>
0.7289679050

> <CNNaffinity>
5.0617327690

> <CNN_VS>
3.6898407936

> <CNNaffinity_variance>
0.1189536378

$$$$
DMT_like


 15 16  0  0  0  0  0  0  0  0999 V2000
  -29.0381  -10.3993  140.0286 C   0  0  0  0  0  0  0  0  0  0  0  0
  -27.7057  -10.7439  139.9097 C   0  0  0  0  0  0  0  0  0  0  0  0
  -27.5336  -11.3934  138.7175 N   0  0  0  0  0  0  0  0  0  0  0  0
  -28.7304  -11.4822  138.0462 C   0  0  0  0  0  0  0  0  0  0  0  0
  -29.0273  -12.0552  136.8037 C   0  0  0  0  0  0  0  0  0  0  0  0
  -30.3534  -11.9996  136.3648 C   0  0  0  0  0  0  0  0  0  0  0  0
  -31.3404  -11.3954  137.1394 C   0  0  0  0  0  0  0  0  0  0  0  0
  -31.0257  -10.8275  138.3795 C   0  0  0  0  0  0  0  0  0  0  0  0
  -29.6954  -10.8692  138.8457 C   0  0  0  0  0  0  0  0  0  0  0  0
  -26.6563  -11.7580  138.3741 H   0  0  0  0  0  0  0  0  0  0  0  0
  -29.6693   -9.6718  141.1780 C   0  0  0  0  0  0  0  0  0  0  0  0
  -30.3568   -8.3698  140.7295 C   0  0  0  0  0  0  0  0  0  0  0  0
  -30.5654   -7.0240  142.7512 C   0  0  0  0  0  0  0  0  0  0  0  0
  -29.8931   -7.1705  141.4586 N   0  0  0  0  0  0  0  0  0  0  0  0
  -30.1267   -5.9744  140.6441 C   0  0  0  0  0  0  0  0  0  0  0  0
 13 14  1  0
 14 15  1  0
 14 12  1  0
 12 11  1  0
 11  1  1  0
  1  2  2  0
  2  3  1  0
  3  4  1  0
  4  5  2  0
  5  6  1  0
  6  7  2  0
  7  8  1  0
  8  9  2  0
  9  1  1  0
  9  4  1  0
  3 10  1  0
M  END
> <minimizedAffinity>
-7.05276

> <CNNscore>
0.7248522043

> <CNNaffinity>
4.9444546700

> <CNN_VS>
3.5839989185

> <CNNaffinity_variance>
0.0900843218

$$$$
DMT_like


 15 16  0  0  0  0  0  0  0  0999 V2000
  -29.5126  -10.3844  139.9043 C   0  0  0  0  0  0  0  0  0  0  0  0
  -30.7497   -9.8924  140.2729 C   0  0  0  0  0  0  0  0  0  0  0  0
  -31.6369  -10.1593  139.2658 N   0  0  0  0  0  0  0  0  0  0  0  0
  -31.0065  -10.8210  138.2384 C   0  0  0  0  0  0  0  0  0  0  0  0
  -31.5148  -11.2890  137.0206 C   0  0  0  0  0  0  0  0  0  0  0  0
  -30.6283  -11.9345  136.1537 C   0  0  0  0  0  0  0  0  0  0  0  0
  -29.2883  -12.1034  136.4933 C   0  0  0  0  0  0  0  0  0  0  0  0
  -28.7971  -11.6291  137.7151 C   0  0  0  0  0  0  0  0  0  0  0  0
  -29.6702  -10.9747  138.6086 C   0  0  0  0  0  0  0  0  0  0  0  0
  -32.6156   -9.9088  139.2699 H   0  0  0  0  0  0  0  0  0  0  0  0
  -28.2506  -10.3122  140.7109 C   0  0  0  0  0  0  0  0  0  0  0  0
  -28.2673  -11.2917  141.8980 C   0  0  0  0  0  0  0  0  0  0  0  0
  -27.2243  -13.2213  140.8349 C   0  0  0  0  0  0  0  0  0  0  0  0
  -27.1267  -12.2318  141.9098 N   0  0  0  0  0  0  0  0  0  0  0  0
  -27.0622  -12.9162  143.2045 C   0  0  0  0  0  0  0  0  0  0  0  0
 13 14  1  0
 14 15  1  0
 14 12  1  0
 12 11  1  0
 11  1  1  0
  1  2  2  0
  2  3  1  0
  3  4  1  0
  4  5  2  0
  5  6  1  0
  6  7  2  0
  7  8  1  0
  8  9  2  0
  9  1  1  0
  9  4  1  0
  3 10  1  0
M  END
> <minimizedAffinity>
-6.48903

> <CNNscore>
0.7207176685

> <CNNaffinity>
5.2618865967

> <CNN_VS>
3.7923345566

> <CNNaffinity_variance>
0.0211363435

$$$$
DMT_like


 15 16  0  0  0  0  0  0  0  0999 V2000
  -30.1717   -6.3837  141.9120 C   0  0  0  0  0  0  0  0  0  0  0  0
  -30.3141   -6.4834  140.5415 C   0  0  0  0  0  0  0  0  0  0  0  0
  -29.9370   -5.2931  139.9817 N   0  0  0  0  0  0  0  0  0  0  0  0
  -29.5465   -4.4090  140.9597 C   0  0  0  0  0  0  0  0  0  0  0  0
  -29.0864   -3.0909  140.8527 C   0  0  0  0  0  0  0  0  0  0  0  0
  -28.7581   -2.4212  142.0350 C   0  0  0  0  0  0  0  0  0  0  0  0
  -28.8862   -3.0466  143.2727 C   0  0  0  0  0  0  0  0  0  0  0  0
  -29.3479   -4.3650  143.3611 C   0  0  0  0  0  0  0  0  0  0  0  0
  -29.6854   -5.0639  142.1836 C   0  0  0  0  0  0  0  0  0  0  0  0
  -29.9426   -5.0867  138.9927 H   0  0  0  0  0  0  0  0  0  0  0  0
  -30.4699   -7.4555  142.9174 C   0  0  0  0  0  0  0  0  0  0  0  0
  -31.6516   -8.3413  142.4836 C   0  0  0  0  0  0  0  0  0  0  0  0
  -29.8833  -10.0150  142.3673 C   0  0  0  0  0  0  0  0  0  0  0  0
  -31.3275   -9.7826  142.4329 N   0  0  0  0  0  0  0  0  0  0  0  0
  -31.9780  -10.3961  141.2713 C   0  0  0  0  0  0  0  0  0  0  0  0
 13 14  1  0
 14 15  1  0
 14 12  1  0
 12 11  1  0
 11  1  1  0
  1  2  2  0
  2  3  1  0
  3  4  1  0
  4  5  2  0
  5  6  1  0
  6  7  2  0
  7  8  1  0
  8  9  2  0
  9  1  1  0
  9  4  1  0
  3 10  1  0
M  END
> <minimizedAffinity>
-6.61402

> <CNNscore>
0.7132503986

> <CNNaffinity>
4.6605033875

> <CNN_VS>
3.3241059780

> <CNNaffinity_variance>
0.2289745361

$$$$
DMT_like


 15 16  0  0  0  0  0  0  0  0999 V2000
  -28.8394  -10.1499  140.3830 C   0  0  0  0  0  0  0  0  0  0  0  0
  -28.5112  -11.0603  141.3689 C   0  0  0  0  0  0  0  0  0  0  0  0
  -28.9758  -10.5857  142.5653 N   0  0  0  0  0  0  0  0  0  0  0  0
  -29.6068   -9.3773  142.3859 C   0  0  0  0  0  0  0  0  0  0  0  0
  -30.2283   -8.5371  143.3177 C   0  0  0  0  0  0  0  0  0  0  0  0
  -30.7944   -7.3501  142.8435 C   0  0  0  0  0  0  0  0  0  0  0  0
  -30.7392   -7.0192  141.4919 C   0  0  0  0  0  0  0  0  0  0  0  0
  -30.1137   -7.8710  140.5741 C   0  0  0  0  0  0  0  0  0  0  0  0
  -29.5351   -9.0752  141.0258 C   0  0  0  0  0  0  0  0  0  0  0  0
  -28.8731  -11.0511  143.4561 H   0  0  0  0  0  0  0  0  0  0  0  0
  -28.5255  -10.2698  138.9217 C   0  0  0  0  0  0  0  0  0  0  0  0
  -28.5318  -11.7343  138.4481 C   0  0  0  0  0  0  0  0  0  0  0  0
  -29.3400  -11.9077  136.1550 C   0  0  0  0  0  0  0  0  0  0  0  0
  -29.6733  -12.0711  137.5714 N   0  0  0  0  0  0  0  0  0  0  0  0
  -30.8224  -11.2254  137.9073 C   0  0  0  0  0  0  0  0  0  0  0  0
 13 14  1  0
 14 15  1  0
 14 12  1  0
 12 11  1  0
 11  1  1  0
  1  2  2  0
  2  3  1  0
  3  4  1  0
  4  5  2  0
  5  6  1  0
  6  7  2  0
  7  8  1  0
  8  9  2  0
  9  1  1  0
  9  4  1  0
  3 10  1  0
M  END
> <minimizedAffinity>
-6.03034

> <CNNscore>
0.6819103956

> <CNNaffinity>
5.2085590363

> <CNN_VS>
3.5517704487

> <CNNaffinity_variance>
0.0317325592

$$$$
DMT_like


 15 16  0  0  0  0  0  0  0  0999 V2000
  -27.9835  -11.5872  139.7313 C   0  0  0  0  0  0  0  0  0  0  0  0
  -27.1829  -12.7025  139.8851 C   0  0  0  0  0  0  0  0  0  0  0  0
  -26.9896  -12.9125  141.2235 N   0  0  0  0  0  0  0  0  0  0  0  0
  -27.6505  -11.9550  141.9564 C   0  0  0  0  0  0  0  0  0  0  0  0
  -27.7340  -11.7786  143.3429 C   0  0  0  0  0  0  0  0  0  0  0  0
  -28.4874  -10.6996  143.8146 C   0  0  0  0  0  0  0  0  0  0  0  0
  -29.1295   -9.8335  142.9331 C   0  0  0  0  0  0  0  0  0  0  0  0
  -29.0352  -10.0249  141.5497 C   0  0  0  0  0  0  0  0  0  0  0  0
  -28.2821  -11.1061  141.0472 C   0  0  0  0  0  0  0  0  0  0  0  0
  -26.4410  -13.6612  141.6224 H   0  0  0  0  0  0  0  0  0  0  0  0
  -28.4482  -10.9984  138.4328 C   0  0  0  0  0  0  0  0  0  0  0  0
  -29.0948  -12.0545  137.5187 C   0  0  0  0  0  0  0  0  0  0  0  0
  -31.1403  -12.1161  136.1944 C   0  0  0  0  0  0  0  0  0  0  0  0
  -30.5727  -12.0368  137.5419 N   0  0  0  0  0  0  0  0  0  0  0  0
  -31.0432  -10.8160  138.2030 C   0  0  0  0  0  0  0  0  0  0  0  0
 13 14  1  0
 14 15  1  0
 14 12  1  0
 12 11  1  0
 11  1  1  0
  1  2  2  0
  2  3  1  0
  3  4  1  0
  4  5  2  0
  5  6  1  0
  6  7  2  0
  7  8  1  0
  8  9  2  0
  9  1  1  0
  9  4  1  0
  3 10  1  0
M  END
> <minimizedAffinity>
-6.18919

> <CNNscore>
0.6817188859

> <CNNaffinity>
5.2611064911

> <CNN_VS>
3.5865957737

> <CNNaffinity_variance>
0.7306272388

$$$$
DMT_like


 15 16  0  0  0  0  0  0  0  0999 V2000
  -28.6272  -15.3962  146.2978 C   0  0  0  0  0  0  0  0  0  0  0  0
  -29.0613  -14.1369  145.9315 C   0  0  0  0  0  0  0  0  0  0  0  0
  -29.9112  -13.6758  146.8997 N   0  0  0  0  0  0  0  0  0  0  0  0
  -30.0447  -14.6093  147.9005 C   0  0  0  0  0  0  0  0  0  0  0  0
  -30.8016  -14.5678  149.0777 C   0  0  0  0  0  0  0  0  0  0  0  0
  -30.7464  -15.6798  149.9231 C   0  0  0  0  0  0  0  0  0  0  0  0
  -29.9657  -16.7872  149.6013 C   0  0  0  0  0  0  0  0  0  0  0  0
  -29.2153  -16.8117  148.4200 C   0  0  0  0  0  0  0  0  0  0  0  0
  -29.2523  -15.7026  147.5497 C   0  0  0  0  0  0  0  0  0  0  0  0
  -30.3773  -12.7796  146.8872 H   0  0  0  0  0  0  0  0  0  0  0  0
  -27.6819  -16.2696  145.5283 C   0  0  0  0  0  0  0  0  0  0  0  0
  -26.2120  -15.9821  145.8827 C   0  0  0  0  0  0  0  0  0  0  0  0
  -24.2215  -17.3276  145.4712 C   0  0  0  0  0  0  0  0  0  0  0  0
  -25.2497  -16.4733  144.8738 N   0  0  0  0  0  0  0  0  0  0  0  0
  -24.6148  -15.3367  144.2001 C   0  0  0  0  0  0  0  0  0  0  0  0
 13 14  1  0
 14 15  1  0
 14 12  1  0
 12 11  1  0
 11  1  1  0
  1  2  2  0
  2  3  1  0
  3  4  1  0
  4  5  2  0
  5  6  1  0
  6  7  2  0
  7  8  1  0
  8  9  2  0
  9  1  1  0
  9  4  1  0
  3 10  1  0
M  END
> <minimizedAffinity>
-6.04752

> <CNNscore>
0.6622577906

> <CNNaffinity>
3.9304325581

> <CNN_VS>
2.6029596329

> <CNNaffinity_variance>
0.7810739875

$$$$
DMT_like


 15 16  0  0  0  0  0  0  0  0999 V2000
  -27.2907  -15.9649  145.4394 C   0  0  0  0  0  0  0  0  0  0  0  0
  -27.1388  -14.8880  144.5876 C   0  0  0  0  0  0  0  0  0  0  0  0
  -27.9288  -13.8663  145.0400 N   0  0  0  0  0  0  0  0  0  0  0  0
  -28.5991  -14.2501  146.1776 C   0  0  0  0  0  0  0  0  0  0  0  0
  -29.5037  -13.5385  146.9749 C   0  0  0  0  0  0  0  0  0  0  0  0
  -30.0391  -14.1921  148.0886 C   0  0  0  0  0  0  0  0  0  0  0  0
  -29.6829  -15.5043  148.3899 C   0  0  0  0  0  0  0  0  0  0  0  0
  -28.7770  -16.2008  147.5816 C   0  0  0  0  0  0  0  0  0  0  0  0
  -28.2213  -15.5646  146.4523 C   0  0  0  0  0  0  0  0  0  0  0  0
  -28.0125  -12.9582  144.6053 H   0  0  0  0  0  0  0  0  0  0  0  0
  -26.6086  -17.2950  145.3215 C   0  0  0  0  0  0  0  0  0  0  0  0
  -25.2438  -17.3090  146.0330 C   0  0  0  0  0  0  0  0  0  0  0  0
  -23.0094  -18.2832  146.0403 C   0  0  0  0  0  0  0  0  0  0  0  0
  -24.1538  -17.8856  145.2179 N   0  0  0  0  0  0  0  0  0  0  0  0
  -23.7213  -16.9132  144.2100 C   0  0  0  0  0  0  0  0  0  0  0  0
 13 14  1  0
 14 15  1  0
 14 12  1  0
 12 11  1  0
 11  1  1  0
  1  2  2  0
  2  3  1  0
  3  4  1  0
  4  5  2  0
  5  6  1  0
  6  7  2  0
  7  8  1  0
  8  9  2  0
  9  1  1  0
  9  4  1  0
  3 10  1  0
M  END
> <minimizedAffinity>
-6.18310

> <CNNscore>
0.6532015800

> <CNNaffinity>
4.2768597603

> <CNN_VS>
2.7936515808

> <CNNaffinity_variance>
0.5503197908

$$$$
DMT_like


 15 16  0  0  0  0  0  0  0  0999 V2000
  -30.9993  -10.0585  140.0665 C   0  0  0  0  0  0  0  0  0  0  0  0
  -32.1092  -10.5854  140.6983 C   0  0  0  0  0  0  0  0  0  0  0  0
  -32.4380   -9.7672  141.7447 N   0  0  0  0  0  0  0  0  0  0  0  0
  -31.5645   -8.7075  141.8138 C   0  0  0  0  0  0  0  0  0  0  0  0
  -31.5181   -7.6337  142.7111 C   0  0  0  0  0  0  0  0  0  0  0  0
  -30.5011   -6.6899  142.5401 C   0  0  0  0  0  0  0  0  0  0  0  0
  -29.5695   -6.8176  141.5130 C   0  0  0  0  0  0  0  0  0  0  0  0
  -29.6308   -7.8978  140.6249 C   0  0  0  0  0  0  0  0  0  0  0  0
  -30.6471   -8.8639  140.7744 C   0  0  0  0  0  0  0  0  0  0  0  0
  -33.2101   -9.9147  142.3793 H   0  0  0  0  0  0  0  0  0  0  0  0
  -30.3021  -10.6316  138.8690 C   0  0  0  0  0  0  0  0  0  0  0  0
  -31.2843  -10.9554  137.7292 C   0  0  0  0  0  0  0  0  0  0  0  0
  -29.4161  -11.9186  136.4948 C   0  0  0  0  0  0  0  0  0  0  0  0
  -30.8312  -12.0513  136.8467 N   0  0  0  0  0  0  0  0  0  0  0  0
  -31.6421  -12.0717  135.6258 C   0  0  0  0  0  0  0  0  0  0  0  0
 13 14  1  0
 14 15  1  0
 14 12  1  0
 12 11  1  0
 11  1  1  0
  1  2  2  0
  2  3  1  0
  3  4  1  0
  4  5  2  0
  5  6  1  0
  6  7  2  0
  7  8  1  0
  8  9  2  0
  9  1  1  0
  9  4  1  0
  3 10  1  0
M  END
> <minimizedAffinity>
-6.45331

> <CNNscore>
0.6472015977

> <CNNaffinity>
5.4625453949

> <CNN_VS>
3.5353682041

> <CNNaffinity_variance>
0.4612323344

$$$$
DMT_like


 15 16  0  0  0  0  0  0  0  0999 V2000
  -28.7236  -10.9130  140.2353 C   0  0  0  0  0  0  0  0  0  0  0  0
  -27.7130  -11.8488  140.3419 C   0  0  0  0  0  0  0  0  0  0  0  0
  -27.4060  -12.0019  141.6666 N   0  0  0  0  0  0  0  0  0  0  0  0
  -28.1981  -11.1836  142.4371 C   0  0  0  0  0  0  0  0  0  0  0  0
  -28.2348  -11.0112  143.8261 C   0  0  0  0  0  0  0  0  0  0  0  0
  -29.1562  -10.0946  144.3411 C   0  0  0  0  0  0  0  0  0  0  0  0
  -30.0047   -9.3805  143.4988 C   0  0  0  0  0  0  0  0  0  0  0  0
  -29.9543   -9.5654  142.1122 C   0  0  0  0  0  0  0  0  0  0  0  0
  -29.0345  -10.4845  141.5664 C   0  0  0  0  0  0  0  0  0  0  0  0
  -26.6997  -12.6247  142.0328 H   0  0  0  0  0  0  0  0  0  0  0  0
  -29.3681  -10.4409  138.9663 C   0  0  0  0  0  0  0  0  0  0  0  0
  -30.5858  -11.3006  138.5827 C   0  0  0  0  0  0  0  0  0  0  0  0
  -29.1340  -11.9039  136.7199 C   0  0  0  0  0  0  0  0  0  0  0  0
  -30.3094  -12.2781  137.5089 N   0  0  0  0  0  0  0  0  0  0  0  0
  -31.4767  -12.3914  136.6296 C   0  0  0  0  0  0  0  0  0  0  0  0
 13 14  1  0
 14 15  1  0
 14 12  1  0
 12 11  1  0
 11  1  1  0
  1  2  2  0
  2  3  1  0
  3  4  1  0
  4  5  2  0
  5  6  1  0
  6  7  2  0
  7  8  1  0
  8  9  2  0
  9  1  1  0
  9  4  1  0
  3 10  1  0
M  END
> <minimizedAffinity>
-6.16823

> <CNNscore>
0.6278585792

> <CNNaffinity>
5.1047077179

> <CNN_VS>
3.2050344944

> <CNNaffinity_variance>
0.1886108965

$$$$
DMT_like


 15 16  0  0  0  0  0  0  0  0999 V2000
  -30.8138  -10.2039  140.0080 C   0  0  0  0  0  0  0  0  0  0  0  0
  -31.9032   -9.3604  139.9075 C   0  0  0  0  0  0  0  0  0  0  0  0
  -32.0923   -8.7550  141.1201 N   0  0  0  0  0  0  0  0  0  0  0  0
  -31.1447   -9.1836  142.0196 C   0  0  0  0  0  0  0  0  0  0  0  0
  -30.9524   -8.8350  143.3620 C   0  0  0  0  0  0  0  0  0  0  0  0
  -29.8917   -9.4397  144.0428 C   0  0  0  0  0  0  0  0  0  0  0  0
  -29.0592  -10.3557  143.4048 C   0  0  0  0  0  0  0  0  0  0  0  0
  -29.2661  -10.6927  142.0621 C   0  0  0  0  0  0  0  0  0  0  0  0
  -30.3286  -10.0967  141.3516 C   0  0  0  0  0  0  0  0  0  0  0  0
  -32.8214   -8.0882  141.3309 H   0  0  0  0  0  0  0  0  0  0  0  0
  -30.2512  -11.0637  138.9158 C   0  0  0  0  0  0  0  0  0  0  0  0
  -31.1269  -11.0361  137.6504 C   0  0  0  0  0  0  0  0  0  0  0  0
  -29.4179  -11.8980  136.1411 C   0  0  0  0  0  0  0  0  0  0  0  0
  -30.7752  -12.0762  136.6606 N   0  0  0  0  0  0  0  0  0  0  0  0
  -31.7339  -12.0496  135.5521 C   0  0  0  0  0  0  0  0  0  0  0  0
 13 14  1  0
 14 15  1  0
 14 12  1  0
 12 11  1  0
 11  1  1  0
  1  2  2  0
  2  3  1  0
  3  4  1  0
  4  5  2  0
  5  6  1  0
  6  7  2  0
  7  8  1  0
  8  9  2  0
  9  1  1  0
  9  4  1  0
  3 10  1  0
M  END
> <minimizedAffinity>
-6.62595

> <CNNscore>
0.6158012152

> <CNNaffinity>
5.5060324669

> <CNN_VS>
3.3906214237

> <CNNaffinity_variance>
0.2382023185

$$$$
DMT_like


 15 16  0  0  0  0  0  0  0  0999 V2000
  -30.2336  -10.8142  139.2459 C   0  0  0  0  0  0  0  0  0  0  0  0
  -28.8611  -10.8635  139.3951 C   0  0  0  0  0  0  0  0  0  0  0  0
  -28.3137  -11.2746  138.2103 N   0  0  0  0  0  0  0  0  0  0  0  0
  -29.3019  -11.4963  137.2802 C   0  0  0  0  0  0  0  0  0  0  0  0
  -29.2090  -11.9192  135.9487 C   0  0  0  0  0  0  0  0  0  0  0  0
  -30.3994  -12.0627  135.2299 C   0  0  0  0  0  0  0  0  0  0  0  0
  -31.6312  -11.7939  135.8214 C   0  0  0  0  0  0  0  0  0  0  0  0
  -31.7054  -11.3720  137.1540 C   0  0  0  0  0  0  0  0  0  0  0  0
  -30.5196  -11.2184  137.9017 C   0  0  0  0  0  0  0  0  0  0  0  0
  -27.3263  -11.3996  138.0370 H   0  0  0  0  0  0  0  0  0  0  0  0
  -31.2281  -10.4127  140.2939 C   0  0  0  0  0  0  0  0  0  0  0  0
  -31.7916   -9.0022  140.0448 C   0  0  0  0  0  0  0  0  0  0  0  0
  -31.3433   -7.0743  141.4675 C   0  0  0  0  0  0  0  0  0  0  0  0
  -32.1542   -8.2793  141.2822 N   0  0  0  0  0  0  0  0  0  0  0  0
  -31.9914   -9.1647  142.4390 C   0  0  0  0  0  0  0  0  0  0  0  0
 13 14  1  0
 14 15  1  0
 14 12  1  0
 12 11  1  0
 11  1  1  0
  1  2  2  0
  2  3  1  0
  3  4  1  0
  4  5  2  0
  5  6  1  0
  6  7  2  0
  7  8  1  0
  8  9  2  0
  9  1  1  0
  9  4  1  0
  3 10  1  0
M  END
> <minimizedAffinity>
-7.41370

> <CNNscore>
0.6154773235

> <CNNaffinity>
4.6963768005

> <CNN_VS>
2.8905134201

> <CNNaffinity_variance>
0.0987008438

$$$$
DMT_like


 15 16  0  0  0  0  0  0  0  0999 V2000
  -31.2802   -9.5553  140.0064 C   0  0  0  0  0  0  0  0  0  0  0  0
  -32.2010   -8.5435  140.1987 C   0  0  0  0  0  0  0  0  0  0  0  0
  -32.0906   -8.1002  141.4886 N   0  0  0  0  0  0  0  0  0  0  0  0
  -31.1110   -8.8015  142.1513 C   0  0  0  0  0  0  0  0  0  0  0  0
  -30.6569   -8.6887  143.4710 C   0  0  0  0  0  0  0  0  0  0  0  0
  -29.6326   -9.5479  143.8794 C   0  0  0  0  0  0  0  0  0  0  0  0
  -29.0868  -10.4813  143.0017 C   0  0  0  0  0  0  0  0  0  0  0  0
  -29.5530  -10.5804  141.6856 C   0  0  0  0  0  0  0  0  0  0  0  0
  -30.5852   -9.7251  141.2475 C   0  0  0  0  0  0  0  0  0  0  0  0
  -32.6460   -7.3640  141.9011 H   0  0  0  0  0  0  0  0  0  0  0  0
  -31.0556  -10.3242  138.7388 C   0  0  0  0  0  0  0  0  0  0  0  0
  -29.9983  -11.4290  138.9134 C   0  0  0  0  0  0  0  0  0  0  0  0
  -29.1911  -11.9253  136.6675 C   0  0  0  0  0  0  0  0  0  0  0  0
  -28.8692  -11.3272  137.9647 N   0  0  0  0  0  0  0  0  0  0  0  0
  -27.6868  -11.9840  138.5296 C   0  0  0  0  0  0  0  0  0  0  0  0
 13 14  1  0
 14 15  1  0
 14 12  1  0
 12 11  1  0
 11  1  1  0
  1  2  2  0
  2  3  1  0
  3  4  1  0
  4  5  2  0
  5  6  1  0
  6  7  2  0
  7  8  1  0
  8  9  2  0
  9  1  1  0
  9  4  1  0
  3 10  1  0
M  END
> <minimizedAffinity>
-6.38255

> <CNNscore>
0.6075367928

> <CNNaffinity>
5.2355027199

> <CNN_VS>
3.1807606220

> <CNNaffinity_variance>
0.0169204380

$$$$
DMT_like


 15 16  0  0  0  0  0  0  0  0999 V2000
  -30.1183  -10.2509  141.1681 C   0  0  0  0  0  0  0  0  0  0  0  0
  -28.8882  -10.6348  141.6658 C   0  0  0  0  0  0  0  0  0  0  0  0
  -28.2168  -11.3086  140.6820 N   0  0  0  0  0  0  0  0  0  0  0  0
  -28.9827  -11.3749  139.5419 C   0  0  0  0  0  0  0  0  0  0  0  0
  -28.7040  -11.9598  138.3007 C   0  0  0  0  0  0  0  0  0  0  0  0
  -29.6856  -11.8742  137.3090 C   0  0  0  0  0  0  0  0  0  0  0  0
  -30.8959  -11.2297  137.5518 C   0  0  0  0  0  0  0  0  0  0  0  0
  -31.1578  -10.6503  138.7988 C   0  0  0  0  0  0  0  0  0  0  0  0
  -30.1844  -10.7217  139.8167 C   0  0  0  0  0  0  0  0  0  0  0  0
  -27.2914  -11.7034  140.7735 H   0  0  0  0  0  0  0  0  0  0  0  0
  -31.1770   -9.4869  141.9058 C   0  0  0  0  0  0  0  0  0  0  0  0
  -30.6094   -8.2337  142.5959 C   0  0  0  0  0  0  0  0  0  0  0  0
  -29.5593   -6.0480  142.3484 C   0  0  0  0  0  0  0  0  0  0  0  0
  -30.0091   -7.2596  141.6601 N   0  0  0  0  0  0  0  0  0  0  0  0
  -30.9824   -6.9040  140.6233 C   0  0  0  0  0  0  0  0  0  0  0  0
 13 14  1  0
 14 15  1  0
 14 12  1  0
 12 11  1  0
 11  1  1  0
  1  2  2  0
  2  3  1  0
  3  4  1  0
  4  5  2  0
  5  6  1  0
  6  7  2  0
  7  8  1  0
  8  9  2  0
  9  1  1  0
  9  4  1  0
  3 10  1  0
M  END
> <minimizedAffinity>
-6.70416

> <CNNscore>
0.6039154530

> <CNNaffinity>
4.6791973114

> <CNN_VS>
2.8258395195

> <CNNaffinity_variance>
0.0635357797

$$$$
DMT_like


 15 16  0  0  0  0  0  0  0  0999 V2000
  -29.5224  -10.5480  140.2411 C   0  0  0  0  0  0  0  0  0  0  0  0
  -30.8166  -10.2139  140.5899 C   0  0  0  0  0  0  0  0  0  0  0  0
  -31.6366  -10.5078  139.5346 N   0  0  0  0  0  0  0  0  0  0  0  0
  -30.9056  -11.0320  138.4947 C   0  0  0  0  0  0  0  0  0  0  0  0
  -31.3207  -11.4719  137.2319 C   0  0  0  0  0  0  0  0  0  0  0  0
  -30.3421  -11.9634  136.3630 C   0  0  0  0  0  0  0  0  0  0  0  0
  -29.0035  -12.0114  136.7440 C   0  0  0  0  0  0  0  0  0  0  0  0
  -28.6061  -11.5672  138.0105 C   0  0  0  0  0  0  0  0  0  0  0  0
  -29.5733  -11.0673  138.9069 C   0  0  0  0  0  0  0  0  0  0  0  0
  -32.6362  -10.3627  139.5155 H   0  0  0  0  0  0  0  0  0  0  0  0
  -28.3023  -10.3950  141.0993 C   0  0  0  0  0  0  0  0  0  0  0  0
  -27.7871  -11.7497  141.6171 C   0  0  0  0  0  0  0  0  0  0  0  0
  -26.9667  -13.0529  143.5067 C   0  0  0  0  0  0  0  0  0  0  0  0
  -27.3969  -11.7324  143.0428 N   0  0  0  0  0  0  0  0  0  0  0  0
  -28.5220  -11.2665  143.8587 C   0  0  0  0  0  0  0  0  0  0  0  0
 13 14  1  0
 14 15  1  0
 14 12  1  0
 12 11  1  0
 11  1  1  0
  1  2  2  0
  2  3  1  0
  3  4  1  0
  4  5  2  0
  5  6  1  0
  6  7  2  0
  7  8  1  0
  8  9  2  0
  9  1  1  0
  9  4  1  0
  3 10  1  0
M  END
> <minimizedAffinity>
-6.61395

> <CNNscore>
0.5900546312

> <CNNaffinity>
4.7908592224

> <CNN_VS>
2.8268687725

> <CNNaffinity_variance>
0.0111910729

$$$$
DMT_like


 15 16  0  0  0  0  0  0  0  0999 V2000
  -30.3124  -10.0328  140.1853 C   0  0  0  0  0  0  0  0  0  0  0  0
  -29.0089  -10.1206  140.6342 C   0  0  0  0  0  0  0  0  0  0  0  0
  -28.2746  -10.7930  139.6954 N   0  0  0  0  0  0  0  0  0  0  0  0
  -29.0713  -11.1497  138.6331 C   0  0  0  0  0  0  0  0  0  0  0  0
  -28.7518  -11.8406  137.4579 C   0  0  0  0  0  0  0  0  0  0  0  0
  -29.7810  -12.0672  136.5393 C   0  0  0  0  0  0  0  0  0  0  0  0
  -31.0762  -11.6204  136.7888 C   0  0  0  0  0  0  0  0  0  0  0  0
  -31.3779  -10.9313  137.9692 C   0  0  0  0  0  0  0  0  0  0  0  0
  -30.3580  -10.6887  138.9126 C   0  0  0  0  0  0  0  0  0  0  0  0
  -27.2886  -11.0011  139.7665 H   0  0  0  0  0  0  0  0  0  0  0  0
  -31.4559   -9.3749  140.8982 C   0  0  0  0  0  0  0  0  0  0  0  0
  -31.7846   -7.9916  140.3087 C   0  0  0  0  0  0  0  0  0  0  0  0
  -30.2239   -6.1570  140.6836 C   0  0  0  0  0  0  0  0  0  0  0  0
  -31.4029   -6.8650  141.1863 N   0  0  0  0  0  0  0  0  0  0  0  0
  -31.1396   -7.3594  142.5409 C   0  0  0  0  0  0  0  0  0  0  0  0
 13 14  1  0
 14 15  1  0
 14 12  1  0
 12 11  1  0
 11  1  1  0
  1  2  2  0
  2  3  1  0
  3  4  1  0
  4  5  2  0
  5  6  1  0
  6  7  2  0
  7  8  1  0
  8  9  2  0
  9  1  1  0
  9  4  1  0
  3 10  1  0
M  END
> <minimizedAffinity>
-7.23570

> <CNNscore>
0.5787420869

> <CNNaffinity>
4.6962265968

> <CNN_VS>
2.7179040909

> <CNNaffinity_variance>
0.0908876285

$$$$
DMT_like


 15 16  0  0  0  0  0  0  0  0999 V2000
  -30.7021  -11.4273  137.2651 C   0  0  0  0  0  0  0  0  0  0  0  0
  -31.5871  -10.6358  137.9713 C   0  0  0  0  0  0  0  0  0  0  0  0
  -30.9719  -10.2227  139.1217 N   0  0  0  0  0  0  0  0  0  0  0  0
  -29.6944  -10.7271  139.1864 C   0  0  0  0  0  0  0  0  0  0  0  0
  -28.7100  -10.5668  140.1691 C   0  0  0  0  0  0  0  0  0  0  0  0
  -27.4839  -11.2077  139.9687 C   0  0  0  0  0  0  0  0  0  0  0  0
  -27.2546  -11.9775  138.8310 C   0  0  0  0  0  0  0  0  0  0  0  0
  -28.2502  -12.1270  137.8586 C   0  0  0  0  0  0  0  0  0  0  0  0
  -29.4961  -11.4905  138.0357 C   0  0  0  0  0  0  0  0  0  0  0  0
  -31.3904   -9.6322  139.8265 H   0  0  0  0  0  0  0  0  0  0  0  0
  -30.9601  -12.0898  135.9449 C   0  0  0  0  0  0  0  0  0  0  0  0
  -32.4649  -12.2399  135.6585 C   0  0  0  0  0  0  0  0  0  0  0  0
  -34.2124  -10.8926  134.6228 C   0  0  0  0  0  0  0  0  0  0  0  0
  -32.9111  -11.5375  134.4368 N   0  0  0  0  0  0  0  0  0  0  0  0
  -32.9861  -12.4844  133.3204 C   0  0  0  0  0  0  0  0  0  0  0  0
 13 14  1  0
 14 15  1  0
 14 12  1  0
 12 11  1  0
 11  1  1  0
  1  2  2  0
  2  3  1  0
  3  4  1  0
  4  5  2  0
  5  6  1  0
  6  7  2  0
  7  8  1  0
  8  9  2  0
  9  1  1  0
  9  4  1  0
  3 10  1  0
M  END
> <minimizedAffinity>
-6.68934

> <CNNscore>
0.5249426365

> <CNNaffinity>
4.4700632095

> <CNN_VS>
2.3465268612

> <CNNaffinity_variance>
0.4352913797

$$$$
DMT_like


 15 16  0  0  0  0  0  0  0  0999 V2000
  -25.6243  -15.4678  146.2523 C   0  0  0  0  0  0  0  0  0  0  0  0
  -26.9690  -15.5980  146.5409 C   0  0  0  0  0  0  0  0  0  0  0  0
  -27.5771  -14.3937  146.3123 N   0  0  0  0  0  0  0  0  0  0  0  0
  -26.6565  -13.4702  145.8760 C   0  0  0  0  0  0  0  0  0  0  0  0
  -26.8251  -12.1258  145.5229 C   0  0  0  0  0  0  0  0  0  0  0  0
  -25.6927  -11.4173  145.1104 C   0  0  0  0  0  0  0  0  0  0  0  0
  -24.4438  -12.0308  145.0549 C   0  0  0  0  0  0  0  0  0  0  0  0
  -24.2935  -13.3760  145.4117 C   0  0  0  0  0  0  0  0  0  0  0  0
  -25.4197  -14.1141  145.8307 C   0  0  0  0  0  0  0  0  0  0  0  0
  -28.5606  -14.2034  146.4434 H   0  0  0  0  0  0  0  0  0  0  0  0
  -24.5835  -16.5418  146.3608 C   0  0  0  0  0  0  0  0  0  0  0  0
  -24.9812  -17.8114  145.5869 C   0  0  0  0  0  0  0  0  0  0  0  0
  -24.1662  -20.0670  145.1511 C   0  0  0  0  0  0  0  0  0  0  0  0
  -23.8300  -18.6421  145.1748 N   0  0  0  0  0  0  0  0  0  0  0  0
  -22.7049  -18.4170  146.0870 C   0  0  0  0  0  0  0  0  0  0  0  0
 13 14  1  0
 14 15  1  0
 14 12  1  0
 12 11  1  0
 11  1  1  0
  1  2  2  0
  2  3  1  0
  3  4  1  0
  4  5  2  0
  5  6  1  0
  6  7  2  0
  7  8  1  0
  8  9  2  0
  9  1  1  0
  9  4  1  0
  3 10  1  0
M  END
> <minimizedAffinity>
-6.03095

> <CNNscore>
0.5246571302

> <CNNaffinity>
4.4200959206

> <CNN_VS>
2.3190348148

> <CNNaffinity_variance>
0.5834645033

$$$$
DMT_like


 15 16  0  0  0  0  0  0  0  0999 V2000
  -28.5796  -11.1242  140.0231 C   0  0  0  0  0  0  0  0  0  0  0  0
  -27.3116  -11.5169  139.6404 C   0  0  0  0  0  0  0  0  0  0  0  0
  -27.3614  -11.9182  138.3330 N   0  0  0  0  0  0  0  0  0  0  0  0
  -28.6412  -11.7956  137.8454 C   0  0  0  0  0  0  0  0  0  0  0  0
  -29.1537  -12.0835  136.5746 C   0  0  0  0  0  0  0  0  0  0  0  0
  -30.5167  -11.8595  136.3596 C   0  0  0  0  0  0  0  0  0  0  0  0
  -31.3318  -11.3680  137.3763 C   0  0  0  0  0  0  0  0  0  0  0  0
  -30.8025  -11.0857  138.6409 C   0  0  0  0  0  0  0  0  0  0  0  0
  -29.4304  -11.3019  138.8844 C   0  0  0  0  0  0  0  0  0  0  0  0
  -26.5748  -12.2571  137.7973 H   0  0  0  0  0  0  0  0  0  0  0  0
  -28.9817  -10.6103  141.3733 C   0  0  0  0  0  0  0  0  0  0  0  0
  -28.0678  -11.1453  142.4902 C   0  0  0  0  0  0  0  0  0  0  0  0
  -28.4234  -11.4606  144.8810 C   0  0  0  0  0  0  0  0  0  0  0  0
  -28.2776  -10.4871  143.7970 N   0  0  0  0  0  0  0  0  0  0  0  0
  -29.4691   -9.6353  143.7370 C   0  0  0  0  0  0  0  0  0  0  0  0
 13 14  1  0
 14 15  1  0
 14 12  1  0
 12 11  1  0
 11  1  1  0
  1  2  2  0
  2  3  1  0
  3  4  1  0
  4  5  2  0
  5  6  1  0
  6  7  2  0
  7  8  1  0
  8  9  2  0
  9  1  1  0
  9  4  1  0
  3 10  1  0
M  END
> <minimizedAffinity>
-6.84084

> <CNNscore>
0.5049147606

> <CNNaffinity>
4.6916046143

> <CNN_VS>
2.3688604832

> <CNNaffinity_variance>
0.0779958963

$$$$
Tryptamine_like


 16 17  0  0  0  0  0  0  0  0999 V2000
  -24.5919  -16.0229  144.5428 C   0  0  0  0  0  0  0  0  0  0  0  0
  -24.2134  -14.7440  144.1843 C   0  0  0  0  0  0  0  0  0  0  0  0
  -25.2728  -13.9030  144.4068 N   0  0  0  0  0  0  0  0  0  0  0  0
  -26.3452  -14.6126  144.8931 C   0  0  0  0  0  0  0  0  0  0  0  0
  -27.6250  -14.1721  145.2489 C   0  0  0  0  0  0  0  0  0  0  0  0
  -28.5260  -15.1226  145.7348 C   0  0  0  0  0  0  0  0  0  0  0  0
  -28.1578  -16.4590  145.8628 C   0  0  0  0  0  0  0  0  0  0  0  0
  -26.8733  -16.8837  145.5022 C   0  0  0  0  0  0  0  0  0  0  0  0
  -25.9463  -15.9445  145.0031 C   0  0  0  0  0  0  0  0  0  0  0  0
  -25.2752  -12.9039  144.2448 H   0  0  0  0  0  0  0  0  0  0  0  0
  -23.7513  -17.2497  144.4553 C   0  0  0  0  0  0  0  0  0  0  0  0
  -22.2505  -18.5437  145.9357 N   0  0  0  0  0  0  0  0  0  0  0  0
  -23.5920  -17.9103  145.8228 C   0  0  0  0  0  0  0  0  0  0  0  0
  -22.1365  -18.9899  146.8557 H   0  0  0  0  0  0  0  0  0  0  0  0
  -21.4938  -17.8546  145.8337 H   0  0  0  0  0  0  0  0  0  0  0  0
  -22.1134  -19.2729  145.2232 H   0  0  0  0  0  0  0  0  0  0  0  0
 12 13  1  0
 13 11  1  0
 11  1  1  0
  1  2  2  0
  2  3  1  0
  3  4  1  0
  4  5  2  0
  5  6  1  0
  6  7  2  0
  7  8  1  0
  8  9  2  0
  9  1  1  0
  9  4  1  0
 12 14  1  0
 12 15  1  0
 12 16  1  0
  3 10  1  0
M  CHG 1  12   1
M  END
> <minimizedAffinity>
-6.34234

> <CNNscore>
0.7811794281

> <CNNaffinity>
4.3192725182

> <CNN_VS>
3.3741269112

> <CNNaffinity_variance>
0.2864287198

$$$$
Tryptamine_like


 16 17  0  0  0  0  0  0  0  0999 V2000
  -28.5952  -10.6465  140.2580 C   0  0  0  0  0  0  0  0  0  0  0  0
  -27.3111  -11.0287  139.9226 C   0  0  0  0  0  0  0  0  0  0  0  0
  -27.3366  -11.5631  138.6605 N   0  0  0  0  0  0  0  0  0  0  0  0
  -28.6199  -11.5497  138.1677 C   0  0  0  0  0  0  0  0  0  0  0  0
  -29.1127  -11.9987  136.9371 C   0  0  0  0  0  0  0  0  0  0  0  0
  -30.4795  -11.8465  136.6918 C   0  0  0  0  0  0  0  0  0  0  0  0
  -31.3171  -11.2646  137.6392 C   0  0  0  0  0  0  0  0  0  0  0  0
  -30.8083  -10.8206  138.8657 C   0  0  0  0  0  0  0  0  0  0  0  0
  -29.4324  -10.9681  139.1408 C   0  0  0  0  0  0  0  0  0  0  0  0
  -26.5340  -11.9148  138.1540 H   0  0  0  0  0  0  0  0  0  0  0  0
  -29.0250  -10.0276  141.5431 C   0  0  0  0  0  0  0  0  0  0  0  0
  -27.3494  -10.8524  143.1649 N   0  0  0  0  0  0  0  0  0  0  0  0
  -28.7654  -10.9628  142.7220 C   0  0  0  0  0  0  0  0  0  0  0  0
  -27.1682  -11.4796  143.9601 H   0  0  0  0  0  0  0  0  0  0  0  0
  -27.1185   -9.8974  143.4694 H   0  0  0  0  0  0  0  0  0  0  0  0
  -26.6953  -11.1129  142.4149 H   0  0  0  0  0  0  0  0  0  0  0  0
 12 13  1  0
 13 11  1  0
 11  1  1  0
  1  2  2  0
  2  3  1  0
  3  4  1  0
  4  5  2  0
  5  6  1  0
  6  7  2  0
  7  8  1  0
  8  9  2  0
  9  1  1  0
  9  4  1  0
 12 14  1  0
 12 15  1  0
 12 16  1  0
  3 10  1  0
M  CHG 1  12   1
M  END
> <minimizedAffinity>
-6.51418

> <CNNscore>
0.7617040277

> <CNNaffinity>
4.2477121353

> <CNN_VS>
3.2354993820

> <CNNaffinity_variance>
0.2301122397

$$$$
Tryptamine_like


 16 17  0  0  0  0  0  0  0  0999 V2000
  -24.5771  -17.2262  145.0164 C   0  0  0  0  0  0  0  0  0  0  0  0
  -23.5243  -16.8795  144.1926 C   0  0  0  0  0  0  0  0  0  0  0  0
  -23.8268  -15.6884  143.5851 N   0  0  0  0  0  0  0  0  0  0  0  0
  -25.0679  -15.2549  143.9874 C   0  0  0  0  0  0  0  0  0  0  0  0
  -25.7788  -14.1063  143.6212 C   0  0  0  0  0  0  0  0  0  0  0  0
  -27.0323  -13.9064  144.2043 C   0  0  0  0  0  0  0  0  0  0  0  0
  -27.5502  -14.8181  145.1199 C   0  0  0  0  0  0  0  0  0  0  0  0
  -26.8263  -15.9626  145.4756 C   0  0  0  0  0  0  0  0  0  0  0  0
  -25.5603  -16.1910  144.8965 C   0  0  0  0  0  0  0  0  0  0  0  0
  -23.2300  -15.1898  142.9374 H   0  0  0  0  0  0  0  0  0  0  0  0
  -24.6725  -18.4508  145.8593 C   0  0  0  0  0  0  0  0  0  0  0  0
  -22.5551  -19.7282  145.8032 N   0  0  0  0  0  0  0  0  0  0  0  0
  -23.9215  -19.6194  145.2251 C   0  0  0  0  0  0  0  0  0  0  0  0
  -22.0440  -20.5147  145.3806 H   0  0  0  0  0  0  0  0  0  0  0  0
  -22.5826  -19.8911  146.8185 H   0  0  0  0  0  0  0  0  0  0  0  0
  -22.0018  -18.8776  145.6336 H   0  0  0  0  0  0  0  0  0  0  0  0
 12 13  1  0
 13 11  1  0
 11  1  1  0
  1  2  2  0
  2  3  1  0
  3  4  1  0
  4  5  2  0
  5  6  1  0
  6  7  2  0
  7  8  1  0
  8  9  2  0
  9  1  1  0
  9  4  1  0
 12 14  1  0
 12 15  1  0
 12 16  1  0
  3 10  1  0
M  CHG 1  12   1
M  END
> <minimizedAffinity>
-6.35777

> <CNNscore>
0.7607917786

> <CNNaffinity>
4.0001091957

> <CNN_VS>
3.0432500839

> <CNNaffinity_variance>
0.5569270253

$$$$
Tryptamine_like


 16 17  0  0  0  0  0  0  0  0999 V2000
  -28.9458  -11.5197  138.8596 C   0  0  0  0  0  0  0  0  0  0  0  0
  -29.9246  -12.1867  138.1494 C   0  0  0  0  0  0  0  0  0  0  0  0
  -31.1050  -11.5063  138.2996 N   0  0  0  0  0  0  0  0  0  0  0  0
  -30.9188  -10.4104  139.1086 C   0  0  0  0  0  0  0  0  0  0  0  0
  -31.8378   -9.4458  139.5373 C   0  0  0  0  0  0  0  0  0  0  0  0
  -31.3640   -8.4179  140.3562 C   0  0  0  0  0  0  0  0  0  0  0  0
  -30.0235   -8.3573  140.7266 C   0  0  0  0  0  0  0  0  0  0  0  0
  -29.1168   -9.3304  140.2893 C   0  0  0  0  0  0  0  0  0  0  0  0
  -29.5711  -10.3824  139.4662 C   0  0  0  0  0  0  0  0  0  0  0  0
  -31.9891  -11.7613  137.8780 H   0  0  0  0  0  0  0  0  0  0  0  0
  -27.5150  -11.9174  138.9782 C   0  0  0  0  0  0  0  0  0  0  0  0
  -27.2355  -12.2743  141.4099 N   0  0  0  0  0  0  0  0  0  0  0  0
  -27.3173  -12.9491  140.0865 C   0  0  0  0  0  0  0  0  0  0  0  0
  -27.1033  -12.9645  142.1613 H   0  0  0  0  0  0  0  0  0  0  0  0
  -28.0938  -11.7494  141.6238 H   0  0  0  0  0  0  0  0  0  0  0  0
  -26.4438  -11.6189  141.4539 H   0  0  0  0  0  0  0  0  0  0  0  0
 12 13  1  0
 13 11  1  0
 11  1  1  0
  1  2  2  0
  2  3  1  0
  3  4  1  0
  4  5  2  0
  5  6  1  0
  6  7  2  0
  7  8  1  0
  8  9  2  0
  9  1  1  0
  9  4  1  0
 12 14  1  0
 12 15  1  0
 12 16  1  0
  3 10  1  0
M  CHG 1  12   1
M  END
> <minimizedAffinity>
-6.24499

> <CNNscore>
0.7519956231

> <CNNaffinity>
5.0035209656

> <CNN_VS>
3.7626259327

> <CNNaffinity_variance>
0.0267882589

$$$$
Tryptamine_like


 16 17  0  0  0  0  0  0  0  0999 V2000
  -30.1149   -6.1734  141.9442 C   0  0  0  0  0  0  0  0  0  0  0  0
  -30.1605   -6.3004  140.5698 C   0  0  0  0  0  0  0  0  0  0  0  0
  -29.7135   -5.1298  140.0140 N   0  0  0  0  0  0  0  0  0  0  0  0
  -29.3881   -4.2316  141.0026 C   0  0  0  0  0  0  0  0  0  0  0  0
  -28.9039   -2.9224  140.9008 C   0  0  0  0  0  0  0  0  0  0  0  0
  -28.6417   -2.2342  142.0878 C   0  0  0  0  0  0  0  0  0  0  0  0
  -28.8522   -2.8349  143.3258 C   0  0  0  0  0  0  0  0  0  0  0  0
  -29.3373   -4.1456  143.4104 C   0  0  0  0  0  0  0  0  0  0  0  0
  -29.6157   -4.8605  142.2264 C   0  0  0  0  0  0  0  0  0  0  0  0
  -29.6272   -4.9442  139.0228 H   0  0  0  0  0  0  0  0  0  0  0  0
  -30.5194   -7.2048  142.9402 C   0  0  0  0  0  0  0  0  0  0  0  0
  -32.4526   -8.5588  142.2001 N   0  0  0  0  0  0  0  0  0  0  0  0
  -30.9673   -8.4926  142.2527 C   0  0  0  0  0  0  0  0  0  0  0  0
  -32.7609   -9.4241  141.7369 H   0  0  0  0  0  0  0  0  0  0  0  0
  -32.8509   -7.7706  141.6728 H   0  0  0  0  0  0  0  0  0  0  0  0
  -32.8669   -8.5518  143.1418 H   0  0  0  0  0  0  0  0  0  0  0  0
 12 13  1  0
 13 11  1  0
 11  1  1  0
  1  2  2  0
  2  3  1  0
  3  4  1  0
  4  5  2  0
  5  6  1  0
  6  7  2  0
  7  8  1  0
  8  9  2  0
  9  1  1  0
  9  4  1  0
 12 14  1  0
 12 15  1  0
 12 16  1  0
  3 10  1  0
M  CHG 1  12   1
M  END
> <minimizedAffinity>
-6.47646

> <CNNscore>
0.7411440015

> <CNNaffinity>
3.9328031540

> <CNN_VS>
2.9147734642

> <CNNaffinity_variance>
0.6388825774

$$$$
Tryptamine_like


 16 17  0  0  0  0  0  0  0  0999 V2000
  -29.1986  -10.8249  139.7286 C   0  0  0  0  0  0  0  0  0  0  0  0
  -30.3804  -10.4159  140.3149 C   0  0  0  0  0  0  0  0  0  0  0  0
  -31.3917  -10.5775  139.4036 N   0  0  0  0  0  0  0  0  0  0  0  0
  -30.8896  -11.0734  138.2238 C   0  0  0  0  0  0  0  0  0  0  0  0
  -31.5484  -11.3819  137.0282 C   0  0  0  0  0  0  0  0  0  0  0  0
  -30.7812  -11.8922  135.9783 C   0  0  0  0  0  0  0  0  0  0  0  0
  -29.4106  -12.0891  136.1223 C   0  0  0  0  0  0  0  0  0  0  0  0
  -28.7665  -11.7752  137.3252 C   0  0  0  0  0  0  0  0  0  0  0  0
  -29.5177  -11.2528  138.3991 C   0  0  0  0  0  0  0  0  0  0  0  0
  -32.3689  -10.3697  139.5660 H   0  0  0  0  0  0  0  0  0  0  0  0
  -27.8491  -10.8113  140.3594 C   0  0  0  0  0  0  0  0  0  0  0  0
  -26.8824  -13.0782  140.5715 N   0  0  0  0  0  0  0  0  0  0  0  0
  -27.6537  -12.0180  141.2746 C   0  0  0  0  0  0  0  0  0  0  0  0
  -26.7463  -13.8940  141.1834 H   0  0  0  0  0  0  0  0  0  0  0  0
  -25.9499  -12.7479  140.2897 H   0  0  0  0  0  0  0  0  0  0  0  0
  -27.3706  -13.4070  139.7277 H   0  0  0  0  0  0  0  0  0  0  0  0
 12 13  1  0
 13 11  1  0
 11  1  1  0
  1  2  2  0
  2  3  1  0
  3  4  1  0
  4  5  2  0
  5  6  1  0
  6  7  2  0
  7  8  1  0
  8  9  2  0
  9  1  1  0
  9  4  1  0
 12 14  1  0
 12 15  1  0
 12 16  1  0
  3 10  1  0
M  CHG 1  12   1
M  END
> <minimizedAffinity>
-6.77920

> <CNNscore>
0.7160258293

> <CNNaffinity>
4.7419109344

> <CNN_VS>
3.3953306675

> <CNNaffinity_variance>
0.0119740544

$$$$
Tryptamine_like


 16 17  0  0  0  0  0  0  0  0999 V2000
  -26.9335  -15.5554  144.7617 C   0  0  0  0  0  0  0  0  0  0  0  0
  -27.9617  -16.3155  145.2838 C   0  0  0  0  0  0  0  0  0  0  0  0
  -27.4476  -17.5240  145.6763 N   0  0  0  0  0  0  0  0  0  0  0  0
  -26.1002  -17.5739  145.4074 C   0  0  0  0  0  0  0  0  0  0  0  0
  -25.1792  -18.6042  145.6287 C   0  0  0  0  0  0  0  0  0  0  0  0
  -23.8499  -18.3742  145.2659 C   0  0  0  0  0  0  0  0  0  0  0  0
  -23.4592  -17.1601  144.7081 C   0  0  0  0  0  0  0  0  0  0  0  0
  -24.3932  -16.1394  144.4931 C   0  0  0  0  0  0  0  0  0  0  0  0
  -25.7433  -16.3485  144.8453 C   0  0  0  0  0  0  0  0  0  0  0  0
  -27.9723  -18.2752  146.1062 H   0  0  0  0  0  0  0  0  0  0  0  0
  -27.0475  -14.1772  144.2078 C   0  0  0  0  0  0  0  0  0  0  0  0
  -26.6811  -13.3030  141.9231 N   0  0  0  0  0  0  0  0  0  0  0  0
  -26.0266  -13.9407  143.0971 C   0  0  0  0  0  0  0  0  0  0  0  0
  -25.9980  -13.1399  141.1713 H   0  0  0  0  0  0  0  0  0  0  0  0
  -27.0936  -12.3922  142.1648 H   0  0  0  0  0  0  0  0  0  0  0  0
  -27.4269  -13.8959  141.5352 H   0  0  0  0  0  0  0  0  0  0  0  0
 12 13  1  0
 13 11  1  0
 11  1  1  0
  1  2  2  0
  2  3  1  0
  3  4  1  0
  4  5  2  0
  5  6  1  0
  6  7  2  0
  7  8  1  0
  8  9  2  0
  9  1  1  0
  9  4  1  0
 12 14  1  0
 12 15  1  0
 12 16  1  0
  3 10  1  0
M  CHG 1  12   1
M  END
> <minimizedAffinity>
-6.32171

> <CNNscore>
0.6933386326

> <CNNaffinity>
4.0580606461

> <CNN_VS>
2.8136103153

> <CNNaffinity_variance>
0.7477050424

$$$$
Tryptamine_like


 16 17  0  0  0  0  0  0  0  0999 V2000
  -25.2491  -16.2968  145.8307 C   0  0  0  0  0  0  0  0  0  0  0  0
  -26.3088  -16.8542  145.1425 C   0  0  0  0  0  0  0  0  0  0  0  0
  -27.0748  -15.8374  144.6340 N   0  0  0  0  0  0  0  0  0  0  0  0
  -26.5414  -14.6211  144.9894 C   0  0  0  0  0  0  0  0  0  0  0  0
  -26.9901  -13.3269  144.7024 C   0  0  0  0  0  0  0  0  0  0  0  0
  -26.2336  -12.2566  145.1857 C   0  0  0  0  0  0  0  0  0  0  0  0
  -25.0730  -12.4746  145.9227 C   0  0  0  0  0  0  0  0  0  0  0  0
  -24.6377  -13.7758  146.2014 C   0  0  0  0  0  0  0  0  0  0  0  0
  -25.3869  -14.8743  145.7298 C   0  0  0  0  0  0  0  0  0  0  0  0
  -27.9099  -15.9531  144.0740 H   0  0  0  0  0  0  0  0  0  0  0  0
  -24.1751  -17.0380  146.5492 C   0  0  0  0  0  0  0  0  0  0  0  0
  -22.3330  -18.6123  146.0525 N   0  0  0  0  0  0  0  0  0  0  0  0
  -23.7609  -18.2927  145.7836 C   0  0  0  0  0  0  0  0  0  0  0  0
  -22.0479  -19.4577  145.5401 H   0  0  0  0  0  0  0  0  0  0  0  0
  -22.1634  -18.7881  147.0516 H   0  0  0  0  0  0  0  0  0  0  0  0
  -21.7102  -17.8496  145.7545 H   0  0  0  0  0  0  0  0  0  0  0  0
 12 13  1  0
 13 11  1  0
 11  1  1  0
  1  2  2  0
  2  3  1  0
  3  4  1  0
  4  5  2  0
  5  6  1  0
  6  7  2  0
  7  8  1  0
  8  9  2  0
  9  1  1  0
  9  4  1  0
 12 14  1  0
 12 15  1  0
 12 16  1  0
  3 10  1  0
M  CHG 1  12   1
M  END
> <minimizedAffinity>
-6.02290

> <CNNscore>
0.6806643605

> <CNNaffinity>
4.1883378029

> <CNN_VS>
2.8508522511

> <CNNaffinity_variance>
0.2440144271

$$$$
Tryptamine_like


 16 17  0  0  0  0  0  0  0  0999 V2000
  -24.2972  -15.6515  144.3986 C   0  0  0  0  0  0  0  0  0  0  0  0
  -23.6343  -16.6779  143.7550 C   0  0  0  0  0  0  0  0  0  0  0  0
  -23.4635  -17.7057  144.6458 N   0  0  0  0  0  0  0  0  0  0  0  0
  -23.9923  -17.3642  145.8680 C   0  0  0  0  0  0  0  0  0  0  0  0
  -24.0359  -18.0936  147.0616 C   0  0  0  0  0  0  0  0  0  0  0  0
  -24.6566  -17.4986  148.1626 C   0  0  0  0  0  0  0  0  0  0  0  0
  -25.2143  -16.2265  148.0697 C   0  0  0  0  0  0  0  0  0  0  0  0
  -25.1622  -15.5098  146.8681 C   0  0  0  0  0  0  0  0  0  0  0  0
  -24.5356  -16.0858  145.7429 C   0  0  0  0  0  0  0  0  0  0  0  0
  -23.0189  -18.5922  144.4434 H   0  0  0  0  0  0  0  0  0  0  0  0
  -24.6799  -14.3392  143.8063 C   0  0  0  0  0  0  0  0  0  0  0  0
  -26.5156  -13.4081  142.4346 N   0  0  0  0  0  0  0  0  0  0  0  0
  -26.1930  -14.2310  143.6313 C   0  0  0  0  0  0  0  0  0  0  0  0
  -27.5341  -13.3322  142.3105 H   0  0  0  0  0  0  0  0  0  0  0  0
  -26.1321  -13.8205  141.5738 H   0  0  0  0  0  0  0  0  0  0  0  0
  -26.1460  -12.4519  142.5200 H   0  0  0  0  0  0  0  0  0  0  0  0
 12 13  1  0
 13 11  1  0
 11  1  1  0
  1  2  2  0
  2  3  1  0
  3  4  1  0
  4  5  2  0
  5  6  1  0
  6  7  2  0
  7  8  1  0
  8  9  2  0
  9  1  1  0
  9  4  1  0
 12 14  1  0
 12 15  1  0
 12 16  1  0
  3 10  1  0
M  CHG 1  12   1
M  END
> <minimizedAffinity>
-6.09732

> <CNNscore>
0.6627911925

> <CNNaffinity>
3.9890048504

> <CNN_VS>
2.6438772678

> <CNNaffinity_variance>
0.4817751348

$$$$
Tryptamine_like


 16 17  0  0  0  0  0  0  0  0999 V2000
  -24.8831  -14.6754  144.7830 C   0  0  0  0  0  0  0  0  0  0  0  0
  -25.0826  -13.9354  145.9319 C   0  0  0  0  0  0  0  0  0  0  0  0
  -24.8081  -14.7340  147.0117 N   0  0  0  0  0  0  0  0  0  0  0  0
  -24.4444  -15.9907  146.5894 C   0  0  0  0  0  0  0  0  0  0  0  0
  -24.0903  -17.1202  147.3362 C   0  0  0  0  0  0  0  0  0  0  0  0
  -23.7473  -18.2790  146.6356 C   0  0  0  0  0  0  0  0  0  0  0  0
  -23.7550  -18.3035  145.2438 C   0  0  0  0  0  0  0  0  0  0  0  0
  -24.1119  -17.1649  144.5113 C   0  0  0  0  0  0  0  0  0  0  0  0
  -24.4683  -15.9833  145.1949 C   0  0  0  0  0  0  0  0  0  0  0  0
  -24.8579  -14.4496  147.9818 H   0  0  0  0  0  0  0  0  0  0  0  0
  -25.0748  -14.2022  143.3835 C   0  0  0  0  0  0  0  0  0  0  0  0
  -26.6801  -13.2816  141.7422 N   0  0  0  0  0  0  0  0  0  0  0  0
  -26.5061  -13.7229  143.1523 C   0  0  0  0  0  0  0  0  0  0  0  0
  -27.6432  -12.9584  141.5796 H   0  0  0  0  0  0  0  0  0  0  0  0
  -26.4974  -14.0458  141.0783 H   0  0  0  0  0  0  0  0  0  0  0  0
  -26.0521  -12.5012  141.5080 H   0  0  0  0  0  0  0  0  0  0  0  0
 12 13  1  0
 13 11  1  0
 11  1  1  0
  1  2  2  0
  2  3  1  0
  3  4  1  0
  4  5  2  0
  5  6  1  0
  6  7  2  0
  7  8  1  0
  8  9  2  0
  9  1  1  0
  9  4  1  0
 12 14  1  0
 12 15  1  0
 12 16  1  0
  3 10  1  0
M  CHG 1  12   1
M  END
> <minimizedAffinity>
-6.12374

> <CNNscore>
0.6574673057

> <CNNaffinity>
4.1815242767

> <CNN_VS>
2.7492156029

> <CNNaffinity_variance>
0.5239849687

$$$$
Tryptamine_like


 16 17  0  0  0  0  0  0  0  0999 V2000
  -28.2366  -11.8503  139.4392 C   0  0  0  0  0  0  0  0  0  0  0  0
  -27.4115  -12.7802  140.0408 C   0  0  0  0  0  0  0  0  0  0  0  0
  -27.3115  -12.4698  141.3723 N   0  0  0  0  0  0  0  0  0  0  0  0
  -28.0474  -11.3425  141.6510 C   0  0  0  0  0  0  0  0  0  0  0  0
  -28.2267  -10.6655  142.8627 C   0  0  0  0  0  0  0  0  0  0  0  0
  -29.0518   -9.5383  142.8595 C   0  0  0  0  0  0  0  0  0  0  0  0
  -29.6749   -9.1098  141.6907 C   0  0  0  0  0  0  0  0  0  0  0  0
  -29.4851   -9.7983  140.4865 C   0  0  0  0  0  0  0  0  0  0  0  0
  -28.6518  -10.9365  140.4614 C   0  0  0  0  0  0  0  0  0  0  0  0
  -26.7804  -12.9895  142.0595 H   0  0  0  0  0  0  0  0  0  0  0  0
  -28.6118  -11.8041  137.9982 C   0  0  0  0  0  0  0  0  0  0  0  0
  -30.4516  -12.0478  136.3630 N   0  0  0  0  0  0  0  0  0  0  0  0
  -30.0726  -12.1991  137.7937 C   0  0  0  0  0  0  0  0  0  0  0  0
  -31.4350  -12.3134  136.2183 H   0  0  0  0  0  0  0  0  0  0  0  0
  -29.8798  -12.6457  135.7519 H   0  0  0  0  0  0  0  0  0  0  0  0
  -30.3474  -11.0756  136.0431 H   0  0  0  0  0  0  0  0  0  0  0  0
 12 13  1  0
 13 11  1  0
 11  1  1  0
  1  2  2  0
  2  3  1  0
  3  4  1  0
  4  5  2  0
  5  6  1  0
  6  7  2  0
  7  8  1  0
  8  9  2  0
  9  1  1  0
  9  4  1  0
 12 14  1  0
 12 15  1  0
 12 16  1  0
  3 10  1  0
M  CHG 1  12   1
M  END
> <minimizedAffinity>
-5.85846

> <CNNscore>
0.6527360082

> <CNNaffinity>
5.3573937416

> <CNN_VS>
3.4969637394

> <CNNaffinity_variance>
0.6965690255

$$$$
Tryptamine_like


 16 17  0  0  0  0  0  0  0  0999 V2000
  -28.4136  -11.4051  140.7960 C   0  0  0  0  0  0  0  0  0  0  0  0
  -28.1939  -10.9699  142.0881 C   0  0  0  0  0  0  0  0  0  0  0  0
  -29.1848  -10.0818  142.4178 N   0  0  0  0  0  0  0  0  0  0  0  0
  -30.0436   -9.9173  141.3570 C   0  0  0  0  0  0  0  0  0  0  0  0
  -31.1804   -9.1093  141.2405 C   0  0  0  0  0  0  0  0  0  0  0  0
  -31.8833   -9.1493  140.0339 C   0  0  0  0  0  0  0  0  0  0  0  0
  -31.4662   -9.9686  138.9886 C   0  0  0  0  0  0  0  0  0  0  0  0
  -30.3265  -10.7710  139.1211 C   0  0  0  0  0  0  0  0  0  0  0  0
  -29.5953  -10.7445  140.3275 C   0  0  0  0  0  0  0  0  0  0  0  0
  -29.2824   -9.6133  143.3096 H   0  0  0  0  0  0  0  0  0  0  0  0
  -27.5722  -12.3702  140.0343 C   0  0  0  0  0  0  0  0  0  0  0  0
  -25.8008  -12.4458  138.3096 N   0  0  0  0  0  0  0  0  0  0  0  0
  -27.0363  -11.7432  138.7492 C   0  0  0  0  0  0  0  0  0  0  0  0
  -25.4351  -12.0286  137.4432 H   0  0  0  0  0  0  0  0  0  0  0  0
  -25.9755  -13.4415  138.1200 H   0  0  0  0  0  0  0  0  0  0  0  0
  -25.0562  -12.3836  139.0168 H   0  0  0  0  0  0  0  0  0  0  0  0
 12 13  1  0
 13 11  1  0
 11  1  1  0
  1  2  2  0
  2  3  1  0
  3  4  1  0
  4  5  2  0
  5  6  1  0
  6  7  2  0
  7  8  1  0
  8  9  2  0
  9  1  1  0
  9  4  1  0
 12 14  1  0
 12 15  1  0
 12 16  1  0
  3 10  1  0
M  CHG 1  12   1
M  END
> <minimizedAffinity>
-6.00781

> <CNNscore>
0.6414391994

> <CNNaffinity>
4.5811667442

> <CNN_VS>
2.9385399818

> <CNNaffinity_variance>
0.0082550151

$$$$
Tryptamine_like


 16 17  0  0  0  0  0  0  0  0999 V2000
  -27.3236  -15.5026  145.0127 C   0  0  0  0  0  0  0  0  0  0  0  0
  -26.8994  -16.8067  145.1763 C   0  0  0  0  0  0  0  0  0  0  0  0
  -27.4910  -17.3138  146.3041 N   0  0  0  0  0  0  0  0  0  0  0  0
  -28.2864  -16.3581  146.8906 C   0  0  0  0  0  0  0  0  0  0  0  0
  -29.0650  -16.4285  148.0515 C   0  0  0  0  0  0  0  0  0  0  0  0
  -29.7949  -15.2934  148.4123 C   0  0  0  0  0  0  0  0  0  0  0  0
  -29.7496  -14.1368  147.6390 C   0  0  0  0  0  0  0  0  0  0  0  0
  -28.9656  -14.0826  146.4803 C   0  0  0  0  0  0  0  0  0  0  0  0
  -28.2141  -15.2135  146.0971 C   0  0  0  0  0  0  0  0  0  0  0  0
  -27.3709  -18.2537  146.6599 H   0  0  0  0  0  0  0  0  0  0  0  0
  -26.9203  -14.5734  143.9203 C   0  0  0  0  0  0  0  0  0  0  0  0
  -24.6796  -14.2513  142.9234 N   0  0  0  0  0  0  0  0  0  0  0  0
  -25.5070  -14.0392  144.1415 C   0  0  0  0  0  0  0  0  0  0  0  0
  -23.7260  -13.8924  143.0657 H   0  0  0  0  0  0  0  0  0  0  0  0
  -25.0715  -13.7639  142.1068 H   0  0  0  0  0  0  0  0  0  0  0  0
  -24.5986  -15.2495  142.6882 H   0  0  0  0  0  0  0  0  0  0  0  0
 12 13  1  0
 13 11  1  0
 11  1  1  0
  1  2  2  0
  2  3  1  0
  3  4  1  0
  4  5  2  0
  5  6  1  0
  6  7  2  0
  7  8  1  0
  8  9  2  0
  9  1  1  0
  9  4  1  0
 12 14  1  0
 12 15  1  0
 12 16  1  0
  3 10  1  0
M  CHG 1  12   1
M  END
> <minimizedAffinity>
-6.20061

> <CNNscore>
0.6318252087

> <CNNaffinity>
3.7842404842

> <CNN_VS>
2.3909785748

> <CNNaffinity_variance>
0.7854045033

$$$$
Tryptamine_like


 16 17  0  0  0  0  0  0  0  0999 V2000
  -30.4950  -10.0744  140.6150 C   0  0  0  0  0  0  0  0  0  0  0  0
  -29.7894  -10.1102  141.8017 C   0  0  0  0  0  0  0  0  0  0  0  0
  -28.6187  -10.7901  141.5863 N   0  0  0  0  0  0  0  0  0  0  0  0
  -28.5514  -11.2128  140.2799 C   0  0  0  0  0  0  0  0  0  0  0  0
  -27.5536  -11.9425  139.6237 C   0  0  0  0  0  0  0  0  0  0  0  0
  -27.7422  -12.2251  138.2687 C   0  0  0  0  0  0  0  0  0  0  0  0
  -28.8821  -11.7906  137.5981 C   0  0  0  0  0  0  0  0  0  0  0  0
  -29.8712  -11.0616  138.2692 C   0  0  0  0  0  0  0  0  0  0  0  0
  -29.7077  -10.7680  139.6394 C   0  0  0  0  0  0  0  0  0  0  0  0
  -27.9000  -10.9585  142.2788 H   0  0  0  0  0  0  0  0  0  0  0  0
  -31.8267   -9.4428  140.3983 C   0  0  0  0  0  0  0  0  0  0  0  0
  -32.1748   -7.4425  141.8111 N   0  0  0  0  0  0  0  0  0  0  0  0
  -31.7358   -7.9202  140.4723 C   0  0  0  0  0  0  0  0  0  0  0  0
  -32.1150   -6.4170  141.8677 H   0  0  0  0  0  0  0  0  0  0  0  0
  -31.5878   -7.8255  142.5638 H   0  0  0  0  0  0  0  0  0  0  0  0
  -33.1507   -7.7030  142.0063 H   0  0  0  0  0  0  0  0  0  0  0  0
 12 13  1  0
 13 11  1  0
 11  1  1  0
  1  2  2  0
  2  3  1  0
  3  4  1  0
  4  5  2  0
  5  6  1  0
  6  7  2  0
  7  8  1  0
  8  9  2  0
  9  1  1  0
  9  4  1  0
 12 14  1  0
 12 15  1  0
 12 16  1  0
  3 10  1  0
M  CHG 1  12   1
M  END
> <minimizedAffinity>
-6.33922

> <CNNscore>
0.6259613037

> <CNNaffinity>
4.3228526115

> <CNN_VS>
2.7059383392

> <CNNaffinity_variance>
0.0393261500

$$$$
Tryptamine_like


 16 17  0  0  0  0  0  0  0  0999 V2000
  -29.2817  -10.9895  139.5594 C   0  0  0  0  0  0  0  0  0  0  0  0
  -30.3893  -10.4510  140.1845 C   0  0  0  0  0  0  0  0  0  0  0  0
  -31.4370  -10.4755  139.3009 N   0  0  0  0  0  0  0  0  0  0  0  0
  -31.0306  -11.0095  138.1011 C   0  0  0  0  0  0  0  0  0  0  0  0
  -31.7540  -11.2178  136.9212 C   0  0  0  0  0  0  0  0  0  0  0  0
  -31.0825  -11.7999  135.8434 C   0  0  0  0  0  0  0  0  0  0  0  0
  -29.7422  -12.1620  135.9454 C   0  0  0  0  0  0  0  0  0  0  0  0
  -29.0326  -11.9468  137.1329 C   0  0  0  0  0  0  0  0  0  0  0  0
  -29.6860  -11.3550  138.2345 C   0  0  0  0  0  0  0  0  0  0  0  0
  -32.3773  -10.1546  139.4940 H   0  0  0  0  0  0  0  0  0  0  0  0
  -27.9238  -11.1480  140.1512 C   0  0  0  0  0  0  0  0  0  0  0  0
  -25.9807  -11.7363  138.7381 N   0  0  0  0  0  0  0  0  0  0  0  0
  -26.8443  -10.6201  139.2089 C   0  0  0  0  0  0  0  0  0  0  0  0
  -25.2516  -11.3872  138.1018 H   0  0  0  0  0  0  0  0  0  0  0  0
  -26.5207  -12.4458  138.2253 H   0  0  0  0  0  0  0  0  0  0  0  0
  -25.5048  -12.2047  139.5207 H   0  0  0  0  0  0  0  0  0  0  0  0
 12 13  1  0
 13 11  1  0
 11  1  1  0
  1  2  2  0
  2  3  1  0
  3  4  1  0
  4  5  2  0
  5  6  1  0
  6  7  2  0
  7  8  1  0
  8  9  2  0
  9  1  1  0
  9  4  1  0
 12 14  1  0
 12 15  1  0
 12 16  1  0
  3 10  1  0
M  CHG 1  12   1
M  END
> <minimizedAffinity>
-6.90602

> <CNNscore>
0.6145064235

> <CNNaffinity>
4.5294480324

> <CNN_VS>
2.7833750248

> <CNNaffinity_variance>
0.1151791513

$$$$
Tryptamine_like


 16 17  0  0  0  0  0  0  0  0999 V2000
  -29.2394  -11.6575  137.6681 C   0  0  0  0  0  0  0  0  0  0  0  0
  -28.0783  -12.0791  138.2856 C   0  0  0  0  0  0  0  0  0  0  0  0
  -28.1090  -11.6623  139.5912 N   0  0  0  0  0  0  0  0  0  0  0  0
  -29.2664  -10.9621  139.8363 C   0  0  0  0  0  0  0  0  0  0  0  0
  -29.7122  -10.3504  141.0135 C   0  0  0  0  0  0  0  0  0  0  0  0
  -30.9532   -9.7099  140.9814 C   0  0  0  0  0  0  0  0  0  0  0  0
  -31.7178   -9.6871  139.8183 C   0  0  0  0  0  0  0  0  0  0  0  0
  -31.2574  -10.3038  138.6487 C   0  0  0  0  0  0  0  0  0  0  0  0
  -30.0045  -10.9525  138.6530 C   0  0  0  0  0  0  0  0  0  0  0  0
  -27.3927  -11.8419  140.2833 H   0  0  0  0  0  0  0  0  0  0  0  0
  -29.6155  -11.8856  136.2448 C   0  0  0  0  0  0  0  0  0  0  0  0
  -31.5489  -11.9490  134.7032 N   0  0  0  0  0  0  0  0  0  0  0  0
  -31.1084  -12.1752  136.1061 C   0  0  0  0  0  0  0  0  0  0  0  0
  -32.5541  -12.1435  134.6030 H   0  0  0  0  0  0  0  0  0  0  0  0
  -31.0512  -12.5619  134.0439 H   0  0  0  0  0  0  0  0  0  0  0  0
  -31.3950  -10.9753  134.4089 H   0  0  0  0  0  0  0  0  0  0  0  0
 12 13  1  0
 13 11  1  0
 11  1  1  0
  1  2  2  0
  2  3  1  0
  3  4  1  0
  4  5  2  0
  5  6  1  0
  6  7  2  0
  7  8  1  0
  8  9  2  0
  9  1  1  0
  9  4  1  0
 12 14  1  0
 12 15  1  0
 12 16  1  0
  3 10  1  0
M  CHG 1  12   1
M  END
> <minimizedAffinity>
-6.57926

> <CNNscore>
0.6061581969

> <CNNaffinity>
5.0645155907

> <CNN_VS>
3.0698976517

> <CNNaffinity_variance>
0.7395463586

$$$$
Tryptamine_like


 16 17  0  0  0  0  0  0  0  0999 V2000
  -30.4560  -11.3967  137.8006 C   0  0  0  0  0  0  0  0  0  0  0  0
  -31.3794  -10.4836  138.2704 C   0  0  0  0  0  0  0  0  0  0  0  0
  -30.9763  -10.0631  139.5113 N   0  0  0  0  0  0  0  0  0  0  0  0
  -29.8096  -10.6964  139.8687 C   0  0  0  0  0  0  0  0  0  0  0  0
  -29.0503  -10.5838  141.0390 C   0  0  0  0  0  0  0  0  0  0  0  0
  -27.8835  -11.3464  141.1305 C   0  0  0  0  0  0  0  0  0  0  0  0
  -27.4917  -12.1842  140.0900 C   0  0  0  0  0  0  0  0  0  0  0  0
  -28.2627  -12.2856  138.9258 C   0  0  0  0  0  0  0  0  0  0  0  0
  -29.4489  -11.5304  138.8107 C   0  0  0  0  0  0  0  0  0  0  0  0
  -31.4567   -9.3832  140.0871 H   0  0  0  0  0  0  0  0  0  0  0  0
  -30.5075  -12.1125  136.4950 C   0  0  0  0  0  0  0  0  0  0  0  0
  -31.7892  -11.9218  134.3881 N   0  0  0  0  0  0  0  0  0  0  0  0
  -31.8972  -12.0219  135.8685 C   0  0  0  0  0  0  0  0  0  0  0  0
  -32.7226  -11.8615  133.9597 H   0  0  0  0  0  0  0  0  0  0  0  0
  -31.3192  -12.7425  133.9838 H   0  0  0  0  0  0  0  0  0  0  0  0
  -31.2664  -11.0836  134.1010 H   0  0  0  0  0  0  0  0  0  0  0  0
 12 13  1  0
 13 11  1  0
 11  1  1  0
  1  2  2  0
  2  3  1  0
  3  4  1  0
  4  5  2  0
  5  6  1  0
  6  7  2  0
  7  8  1  0
  8  9  2  0
  9  1  1  0
  9  4  1  0
 12 14  1  0
 12 15  1  0
 12 16  1  0
  3 10  1  0
M  CHG 1  12   1
M  END
> <minimizedAffinity>
-6.51276

> <CNNscore>
0.5938600302

> <CNNaffinity>
5.0720748901

> <CNN_VS>
3.0121026039

> <CNNaffinity_variance>
0.6908909678

$$$$
Tryptamine_like


 16 17  0  0  0  0  0  0  0  0999 V2000
  -29.2003  -15.3402  147.6470 C   0  0  0  0  0  0  0  0  0  0  0  0
  -29.4286  -14.1780  146.9367 C   0  0  0  0  0  0  0  0  0  0  0  0
  -30.4352  -13.4846  147.5573 N   0  0  0  0  0  0  0  0  0  0  0  0
  -30.8802  -14.1805  148.6563 C   0  0  0  0  0  0  0  0  0  0  0  0
  -31.8892  -13.8608  149.5720 C   0  0  0  0  0  0  0  0  0  0  0  0
  -32.1239  -14.7574  150.6171 C   0  0  0  0  0  0  0  0  0  0  0  0
  -31.3753  -15.9245  150.7416 C   0  0  0  0  0  0  0  0  0  0  0  0
  -30.3694  -16.2298  149.8169 C   0  0  0  0  0  0  0  0  0  0  0  0
  -30.1163  -15.3437  148.7486 C   0  0  0  0  0  0  0  0  0  0  0  0
  -30.8020  -12.5889  147.2615 H   0  0  0  0  0  0  0  0  0  0  0  0
  -28.1981  -16.3927  147.3196 C   0  0  0  0  0  0  0  0  0  0  0  0
  -27.2342  -17.7174  145.4664 N   0  0  0  0  0  0  0  0  0  0  0  0
  -27.9212  -16.4457  145.8188 C   0  0  0  0  0  0  0  0  0  0  0  0
  -27.0457  -17.7598  144.4559 H   0  0  0  0  0  0  0  0  0  0  0  0
  -27.8057  -18.5384  145.7060 H   0  0  0  0  0  0  0  0  0  0  0  0
  -26.3308  -17.8079  145.9501 H   0  0  0  0  0  0  0  0  0  0  0  0
 12 13  1  0
 13 11  1  0
 11  1  1  0
  1  2  2  0
  2  3  1  0
  3  4  1  0
  4  5  2  0
  5  6  1  0
  6  7  2  0
  7  8  1  0
  8  9  2  0
  9  1  1  0
  9  4  1  0
 12 14  1  0
 12 15  1  0
 12 16  1  0
  3 10  1  0
M  CHG 1  12   1
M  END
> <minimizedAffinity>
-5.95994

> <CNNscore>
0.5927208662

> <CNNaffinity>
3.3421351910

> <CNN_VS>
1.9809532166

> <CNNaffinity_variance>
1.3111510277

$$$$
Tryptamine_like


 16 17  0  0  0  0  0  0  0  0999 V2000
  -29.0885   -3.1355  142.1440 C   0  0  0  0  0  0  0  0  0  0  0  0
  -29.0419   -2.6744  140.8430 C   0  0  0  0  0  0  0  0  0  0  0  0
  -29.3604   -3.7125  140.0064 N   0  0  0  0  0  0  0  0  0  0  0  0
  -29.6021   -4.8513  140.7377 C   0  0  0  0  0  0  0  0  0  0  0  0
  -29.9482   -6.1372  140.3068 C   0  0  0  0  0  0  0  0  0  0  0  0
  -30.1506   -7.1154  141.2833 C   0  0  0  0  0  0  0  0  0  0  0  0
  -30.0157   -6.8161  142.6361 C   0  0  0  0  0  0  0  0  0  0  0  0
  -29.6688   -5.5246  143.0507 C   0  0  0  0  0  0  0  0  0  0  0  0
  -29.4530   -4.5197  142.0841 C   0  0  0  0  0  0  0  0  0  0  0  0
  -29.4169   -3.6591  138.9973 H   0  0  0  0  0  0  0  0  0  0  0  0
  -28.8025   -2.3429  143.3725 C   0  0  0  0  0  0  0  0  0  0  0  0
  -31.1116   -1.4664  143.5070 N   0  0  0  0  0  0  0  0  0  0  0  0
  -29.6737   -1.0905  143.4387 C   0  0  0  0  0  0  0  0  0  0  0  0
  -31.7041   -0.6266  143.5529 H   0  0  0  0  0  0  0  0  0  0  0  0
  -31.3183   -2.0329  144.3403 H   0  0  0  0  0  0  0  0  0  0  0  0
  -31.4041   -2.0021  142.6789 H   0  0  0  0  0  0  0  0  0  0  0  0
 12 13  1  0
 13 11  1  0
 11  1  1  0
  1  2  2  0
  2  3  1  0
  3  4  1  0
  4  5  2  0
  5  6  1  0
  6  7  2  0
  7  8  1  0
  8  9  2  0
  9  1  1  0
  9  4  1  0
 12 14  1  0
 12 15  1  0
 12 16  1  0
  3 10  1  0
M  CHG 1  12   1
M  END
> <minimizedAffinity>
-6.02950

> <CNNscore>
0.5799603462

> <CNNaffinity>
3.6045176983

> <CNN_VS>
2.0904772282

> <CNNaffinity_variance>
0.8806055188

$$$$
Tryptamine_like


 16 17  0  0  0  0  0  0  0  0999 V2000
  -30.2833  -10.8757  138.7908 C   0  0  0  0  0  0  0  0  0  0  0  0
  -28.9560  -10.4950  138.7659 C   0  0  0  0  0  0  0  0  0  0  0  0
  -28.6873   -9.7945  139.9132 N   0  0  0  0  0  0  0  0  0  0  0  0
  -29.8214   -9.6980  140.6843 C   0  0  0  0  0  0  0  0  0  0  0  0
  -30.0147   -9.0707  141.9203 C   0  0  0  0  0  0  0  0  0  0  0  0
  -31.2875   -9.1422  142.4915 C   0  0  0  0  0  0  0  0  0  0  0  0
  -32.3228   -9.8183  141.8520 C   0  0  0  0  0  0  0  0  0  0  0  0
  -32.1130  -10.4407  140.6155 C   0  0  0  0  0  0  0  0  0  0  0  0
  -30.8381  -10.3781  140.0143 C   0  0  0  0  0  0  0  0  0  0  0  0
  -27.7886   -9.4048  140.1680 H   0  0  0  0  0  0  0  0  0  0  0  0
  -31.0004  -11.6476  137.7376 C   0  0  0  0  0  0  0  0  0  0  0  0
  -30.8020  -12.0237  135.3008 N   0  0  0  0  0  0  0  0  0  0  0  0
  -30.0632  -12.0237  136.5921 C   0  0  0  0  0  0  0  0  0  0  0  0
  -30.1756  -12.2754  134.5246 H   0  0  0  0  0  0  0  0  0  0  0  0
  -31.1971  -11.0982  135.0877 H   0  0  0  0  0  0  0  0  0  0  0  0
  -31.5733  -12.7045  135.3044 H   0  0  0  0  0  0  0  0  0  0  0  0
 12 13  1  0
 13 11  1  0
 11  1  1  0
  1  2  2  0
  2  3  1  0
  3  4  1  0
  4  5  2  0
  5  6  1  0
  6  7  2  0
  7  8  1  0
  8  9  2  0
  9  1  1  0
  9  4  1  0
 12 14  1  0
 12 15  1  0
 12 16  1  0
  3 10  1  0
M  CHG 1  12   1
M  END
> <minimizedAffinity>
-5.97088

> <CNNscore>
0.5776080489

> <CNNaffinity>
5.3367686272

> <CNN_VS>
3.0825605392

> <CNNaffinity_variance>
1.2371820211

$$$$
Tryptamine_like


 15 16  0  0  0  0  0  0  0  0999 V2000
  -28.7485   -9.9933  140.4900 C   0  0  0  0  0  0  0  0  0  0  0  0
  -28.6888  -10.9536  141.4830 C   0  0  0  0  0  0  0  0  0  0  0  0
  -29.3596  -10.4832  142.5789 N   0  0  0  0  0  0  0  0  0  0  0  0
  -29.8547   -9.2252  142.3316 C   0  0  0  0  0  0  0  0  0  0  0  0
  -30.5909   -8.3671  143.1581 C   0  0  0  0  0  0  0  0  0  0  0  0
  -30.9712   -7.1290  142.6327 C   0  0  0  0  0  0  0  0  0  0  0  0
  -30.6293   -6.7672  141.3323 C   0  0  0  0  0  0  0  0  0  0  0  0
  -29.8921   -7.6376  140.5210 C   0  0  0  0  0  0  0  0  0  0  0  0
  -29.4925   -8.8921  141.0257 C   0  0  0  0  0  0  0  0  0  0  0  0
  -29.4755  -10.9814  143.4498 H   0  0  0  0  0  0  0  0  0  0  0  0
  -28.1289  -10.0929  139.1291 C   0  0  0  0  0  0  0  0  0  0  0  0
  -26.1370  -11.5800  138.8047 N   0  0  0  0  0  0  0  0  0  0  0  0
  -27.5981  -11.4925  138.7853 C   0  0  0  0  0  0  0  0  0  0  0  0
  -25.8521  -12.5354  138.5965 H   0  0  0  0  0  0  0  0  0  0  0  0
  -25.7905  -11.3669  139.7378 H   0  0  0  0  0  0  0  0  0  0  0  0
 12 13  1  0
 13 11  1  0
 11  1  1  0
  1  2  2  0
  2  3  1  0
  3  4  1  0
  4  5  2  0
  5  6  1  0
  6  7  2  0
  7  8  1  0
  8  9  2  0
  9  1  1  0
  9  4  1  0
 12 14  1  0
 12 15  1  0
  3 10  1  0
M  END
> <minimizedAffinity>
-5.86565

> <CNNscore>
0.7631679177

> <CNNaffinity>
4.7070884705

> <CNN_VS>
3.5922989845

> <CNNaffinity_variance>
0.0071569011

$$$$
Tryptamine_like


 15 16  0  0  0  0  0  0  0  0999 V2000
  -24.6013  -16.0074  144.5265 C   0  0  0  0  0  0  0  0  0  0  0  0
  -24.2372  -14.7199  144.1778 C   0  0  0  0  0  0  0  0  0  0  0  0
  -25.3023  -13.8927  144.4097 N   0  0  0  0  0  0  0  0  0  0  0  0
  -26.3673  -14.6114  144.8976 C   0  0  0  0  0  0  0  0  0  0  0  0
  -27.6503  -14.1861  145.2641 C   0  0  0  0  0  0  0  0  0  0  0  0
  -28.5421  -15.1513  145.7402 C   0  0  0  0  0  0  0  0  0  0  0  0
  -28.1626  -16.4868  145.8463 C   0  0  0  0  0  0  0  0  0  0  0  0
  -26.8760  -16.8937  145.4743 C   0  0  0  0  0  0  0  0  0  0  0  0
  -25.9563  -15.9419  144.9879 C   0  0  0  0  0  0  0  0  0  0  0  0
  -25.3134  -12.8963  144.2450 H   0  0  0  0  0  0  0  0  0  0  0  0
  -23.7389  -17.2280  144.4152 C   0  0  0  0  0  0  0  0  0  0  0  0
  -22.2525  -18.5515  145.9395 N   0  0  0  0  0  0  0  0  0  0  0  0
  -23.5977  -18.0147  145.7266 C   0  0  0  0  0  0  0  0  0  0  0  0
  -22.2189  -19.0361  146.8346 H   0  0  0  0  0  0  0  0  0  0  0  0
  -21.5807  -17.7886  145.9930 H   0  0  0  0  0  0  0  0  0  0  0  0
 12 13  1  0
 13 11  1  0
 11  1  1  0
  1  2  2  0
  2  3  1  0
  3  4  1  0
  4  5  2  0
  5  6  1  0
  6  7  2  0
  7  8  1  0
  8  9  2  0
  9  1  1  0
  9  4  1  0
 12 14  1  0
 12 15  1  0
  3 10  1  0
M  END
> <minimizedAffinity>
-6.37701

> <CNNscore>
0.7553327084

> <CNNaffinity>
4.2934722900

> <CNN_VS>
3.2430000305

> <CNNaffinity_variance>
0.2681177557

$$$$
Tryptamine_like


 15 16  0  0  0  0  0  0  0  0999 V2000
  -28.9107  -11.6011  138.8606 C   0  0  0  0  0  0  0  0  0  0  0  0
  -29.8708  -12.2110  138.0743 C   0  0  0  0  0  0  0  0  0  0  0  0
  -31.0379  -11.5069  138.1947 N   0  0  0  0  0  0  0  0  0  0  0  0
  -30.8694  -10.4471  139.0534 C   0  0  0  0  0  0  0  0  0  0  0  0
  -31.7838   -9.4737  139.4750 C   0  0  0  0  0  0  0  0  0  0  0  0
  -31.3269   -8.4965  140.3637 C   0  0  0  0  0  0  0  0  0  0  0  0
  -30.0078   -8.4942  140.8096 C   0  0  0  0  0  0  0  0  0  0  0  0
  -29.1081   -9.4759  140.3781 C   0  0  0  0  0  0  0  0  0  0  0  0
  -29.5422  -10.4758  139.4836 C   0  0  0  0  0  0  0  0  0  0  0  0
  -31.9044  -11.7299  137.7261 H   0  0  0  0  0  0  0  0  0  0  0  0
  -27.4935  -12.0567  139.0335 C   0  0  0  0  0  0  0  0  0  0  0  0
  -27.1754  -12.3967  141.4968 N   0  0  0  0  0  0  0  0  0  0  0  0
  -27.2923  -13.0466  140.1903 C   0  0  0  0  0  0  0  0  0  0  0  0
  -27.0719  -13.1062  142.2200 H   0  0  0  0  0  0  0  0  0  0  0  0
  -28.0307  -11.8860  141.7063 H   0  0  0  0  0  0  0  0  0  0  0  0
 12 13  1  0
 13 11  1  0
 11  1  1  0
  1  2  2  0
  2  3  1  0
  3  4  1  0
  4  5  2  0
  5  6  1  0
  6  7  2  0
  7  8  1  0
  8  9  2  0
  9  1  1  0
  9  4  1  0
 12 14  1  0
 12 15  1  0
  3 10  1  0
M  END
> <minimizedAffinity>
-6.24647

> <CNNscore>
0.7337862849

> <CNNaffinity>
4.9646306038

> <CNN_VS>
3.6429779530

> <CNNaffinity_variance>
0.0183847640

$$$$
Tryptamine_like


 15 16  0  0  0  0  0  0  0  0999 V2000
  -25.7326  -17.5379  145.3524 C   0  0  0  0  0  0  0  0  0  0  0  0
  -27.0902  -17.5874  145.6101 C   0  0  0  0  0  0  0  0  0  0  0  0
  -27.6566  -16.4246  145.1636 N   0  0  0  0  0  0  0  0  0  0  0  0
  -26.6966  -15.6031  144.6229 C   0  0  0  0  0  0  0  0  0  0  0  0
  -26.8157  -14.3273  144.0575 C   0  0  0  0  0  0  0  0  0  0  0  0
  -25.6525  -13.7207  143.5752 C   0  0  0  0  0  0  0  0  0  0  0  0
  -24.4218  -14.3671  143.6546 C   0  0  0  0  0  0  0  0  0  0  0  0
  -24.3219  -15.6420  144.2239 C   0  0  0  0  0  0  0  0  0  0  0  0
  -25.4786  -16.2769  144.7213 C   0  0  0  0  0  0  0  0  0  0  0  0
  -28.6382  -16.1939  145.2228 H   0  0  0  0  0  0  0  0  0  0  0  0
  -24.7311  -18.5989  145.6948 C   0  0  0  0  0  0  0  0  0  0  0  0
  -22.2608  -18.5055  146.1108 N   0  0  0  0  0  0  0  0  0  0  0  0
  -23.5852  -18.1099  146.5928 C   0  0  0  0  0  0  0  0  0  0  0  0
  -21.5476  -18.1286  146.7325 H   0  0  0  0  0  0  0  0  0  0  0  0
  -22.0928  -18.1015  145.1917 H   0  0  0  0  0  0  0  0  0  0  0  0
 12 13  1  0
 13 11  1  0
 11  1  1  0
  1  2  2  0
  2  3  1  0
  3  4  1  0
  4  5  2  0
  5  6  1  0
  6  7  2  0
  7  8  1  0
  8  9  2  0
  9  1  1  0
  9  4  1  0
 12 14  1  0
 12 15  1  0
  3 10  1  0
M  END
> <minimizedAffinity>
-6.35888

> <CNNscore>
0.7280116677

> <CNNaffinity>
4.2350177765

> <CNN_VS>
3.0831422806

> <CNNaffinity_variance>
0.4273152351

$$$$
Tryptamine_like


 15 16  0  0  0  0  0  0  0  0999 V2000
  -29.3271  -10.9333  139.5427 C   0  0  0  0  0  0  0  0  0  0  0  0
  -30.4498  -10.4172  140.1634 C   0  0  0  0  0  0  0  0  0  0  0  0
  -31.4956  -10.4779  139.2831 N   0  0  0  0  0  0  0  0  0  0  0  0
  -31.0828  -11.0170  138.0881 C   0  0  0  0  0  0  0  0  0  0  0  0
  -31.8026  -11.2595  136.9115 C   0  0  0  0  0  0  0  0  0  0  0  0
  -31.1153  -11.8307  135.8369 C   0  0  0  0  0  0  0  0  0  0  0  0
  -29.7632  -12.1475  135.9385 C   0  0  0  0  0  0  0  0  0  0  0  0
  -29.0597  -11.8971  137.1225 C   0  0  0  0  0  0  0  0  0  0  0  0
  -29.7270  -11.3189  138.2219 C   0  0  0  0  0  0  0  0  0  0  0  0
  -32.4379  -10.1692  139.4750 H   0  0  0  0  0  0  0  0  0  0  0  0
  -27.9585  -11.0402  140.1437 C   0  0  0  0  0  0  0  0  0  0  0  0
  -26.0044  -11.7676  138.7518 N   0  0  0  0  0  0  0  0  0  0  0  0
  -26.8243  -10.6367  139.1900 C   0  0  0  0  0  0  0  0  0  0  0  0
  -25.2915  -11.4380  138.1035 H   0  0  0  0  0  0  0  0  0  0  0  0
  -26.5801  -12.4343  138.2415 H   0  0  0  0  0  0  0  0  0  0  0  0
 12 13  1  0
 13 11  1  0
 11  1  1  0
  1  2  2  0
  2  3  1  0
  3  4  1  0
  4  5  2  0
  5  6  1  0
  6  7  2  0
  7  8  1  0
  8  9  2  0
  9  1  1  0
  9  4  1  0
 12 14  1  0
 12 15  1  0
  3 10  1  0
M  END
> <minimizedAffinity>
-6.90400

> <CNNscore>
0.7195037603

> <CNNaffinity>
4.6570625305

> <CNN_VS>
3.3507740498

> <CNNaffinity_variance>
0.0461977869

$$$$
Tryptamine_like


 15 16  0  0  0  0  0  0  0  0999 V2000
  -29.2305  -10.8388  139.7991 C   0  0  0  0  0  0  0  0  0  0  0  0
  -30.4275  -10.4264  140.3551 C   0  0  0  0  0  0  0  0  0  0  0  0
  -31.4146  -10.5861  139.4211 N   0  0  0  0  0  0  0  0  0  0  0  0
  -30.8906  -11.0887  138.2542 C   0  0  0  0  0  0  0  0  0  0  0  0
  -31.5211  -11.4003  137.0431 C   0  0  0  0  0  0  0  0  0  0  0  0
  -30.7276  -11.9092  136.0111 C   0  0  0  0  0  0  0  0  0  0  0  0
  -29.3595  -12.0996  136.1869 C   0  0  0  0  0  0  0  0  0  0  0  0
  -28.7464  -11.7816  137.4043 C   0  0  0  0  0  0  0  0  0  0  0  0
  -29.5219  -11.2638  138.4621 C   0  0  0  0  0  0  0  0  0  0  0  0
  -32.3903  -10.3649  139.5603 H   0  0  0  0  0  0  0  0  0  0  0  0
  -27.8919  -10.8171  140.4726 C   0  0  0  0  0  0  0  0  0  0  0  0
  -26.8817  -13.0846  140.8225 N   0  0  0  0  0  0  0  0  0  0  0  0
  -27.6534  -11.9970  141.4264 C   0  0  0  0  0  0  0  0  0  0  0  0
  -26.7358  -13.8197  141.5120 H   0  0  0  0  0  0  0  0  0  0  0  0
  -25.9599  -12.7463  140.5540 H   0  0  0  0  0  0  0  0  0  0  0  0
 12 13  1  0
 13 11  1  0
 11  1  1  0
  1  2  2  0
  2  3  1  0
  3  4  1  0
  4  5  2  0
  5  6  1  0
  6  7  2  0
  7  8  1  0
  8  9  2  0
  9  1  1  0
  9  4  1  0
 12 14  1  0
 12 15  1  0
  3 10  1  0
M  END
> <minimizedAffinity>
-6.75689

> <CNNscore>
0.7067095637

> <CNNaffinity>
4.7131323814

> <CNN_VS>
3.3308157921

> <CNNaffinity_variance>
0.0066803191

$$$$
Tryptamine_like


 15 16  0  0  0  0  0  0  0  0999 V2000
  -28.6639  -11.0119  139.9348 C   0  0  0  0  0  0  0  0  0  0  0  0
  -27.3872  -11.3947  139.5667 C   0  0  0  0  0  0  0  0  0  0  0  0
  -27.4243  -11.8289  138.2696 N   0  0  0  0  0  0  0  0  0  0  0  0
  -28.7044  -11.7482  137.7758 C   0  0  0  0  0  0  0  0  0  0  0  0
  -29.2071  -12.0876  136.5135 C   0  0  0  0  0  0  0  0  0  0  0  0
  -30.5722  -11.8924  136.2853 C   0  0  0  0  0  0  0  0  0  0  0  0
  -31.3983  -11.3767  137.2806 C   0  0  0  0  0  0  0  0  0  0  0  0
  -30.8781  -11.0440  138.5368 C   0  0  0  0  0  0  0  0  0  0  0  0
  -29.5050  -11.2330  138.7960 C   0  0  0  0  0  0  0  0  0  0  0  0
  -26.6299  -12.1656  137.7445 H   0  0  0  0  0  0  0  0  0  0  0  0
  -29.0746  -10.4896  141.2781 C   0  0  0  0  0  0  0  0  0  0  0  0
  -29.1182  -11.0506  143.7211 N   0  0  0  0  0  0  0  0  0  0  0  0
  -28.3918  -11.1963  142.4585 C   0  0  0  0  0  0  0  0  0  0  0  0
  -28.6300  -11.5624  144.4537 H   0  0  0  0  0  0  0  0  0  0  0  0
  -30.0430  -11.4677  143.6376 H   0  0  0  0  0  0  0  0  0  0  0  0
 12 13  1  0
 13 11  1  0
 11  1  1  0
  1  2  2  0
  2  3  1  0
  3  4  1  0
  4  5  2  0
  5  6  1  0
  6  7  2  0
  7  8  1  0
  8  9  2  0
  9  1  1  0
  9  4  1  0
 12 14  1  0
 12 15  1  0
  3 10  1  0
M  END
> <minimizedAffinity>
-6.76669

> <CNNscore>
0.6892814636

> <CNNaffinity>
4.5926156044

> <CNN_VS>
3.1656048298

> <CNNaffinity_variance>
0.0369472094

$$$$
Tryptamine_like


 15 16  0  0  0  0  0  0  0  0999 V2000
  -26.8736  -15.6091  144.7954 C   0  0  0  0  0  0  0  0  0  0  0  0
  -27.9068  -16.3737  145.3050 C   0  0  0  0  0  0  0  0  0  0  0  0
  -27.3995  -17.5868  145.6836 N   0  0  0  0  0  0  0  0  0  0  0  0
  -26.0507  -17.6416  145.4256 C   0  0  0  0  0  0  0  0  0  0  0  0
  -25.1326  -18.6771  145.6405 C   0  0  0  0  0  0  0  0  0  0  0  0
  -23.8015  -18.4485  145.2809 C   0  0  0  0  0  0  0  0  0  0  0  0
  -23.4070  -17.2317  144.7306 C   0  0  0  0  0  0  0  0  0  0  0  0
  -24.3390  -16.2084  144.5222 C   0  0  0  0  0  0  0  0  0  0  0  0
  -25.6894  -16.4121  144.8731 C   0  0  0  0  0  0  0  0  0  0  0  0
  -27.9339  -18.3407  146.0914 H   0  0  0  0  0  0  0  0  0  0  0  0
  -26.9923  -14.2182  144.2503 C   0  0  0  0  0  0  0  0  0  0  0  0
  -26.6576  -13.3385  141.9268 N   0  0  0  0  0  0  0  0  0  0  0  0
  -26.0111  -13.9083  143.1102 C   0  0  0  0  0  0  0  0  0  0  0  0
  -25.9522  -13.1316  141.2220 H   0  0  0  0  0  0  0  0  0  0  0  0
  -27.1008  -12.4543  142.1674 H   0  0  0  0  0  0  0  0  0  0  0  0
 12 13  1  0
 13 11  1  0
 11  1  1  0
  1  2  2  0
  2  3  1  0
  3  4  1  0
  4  5  2  0
  5  6  1  0
  6  7  2  0
  7  8  1  0
  8  9  2  0
  9  1  1  0
  9  4  1  0
 12 14  1  0
 12 15  1  0
  3 10  1  0
M  END
> <minimizedAffinity>
-6.30621

> <CNNscore>
0.6866099238

> <CNNaffinity>
4.0813465118

> <CNN_VS>
2.8022930622

> <CNNaffinity_variance>
0.7418062687

$$$$
Tryptamine_like


 15 16  0  0  0  0  0  0  0  0999 V2000
  -29.3725  -10.2427  139.2856 C   0  0  0  0  0  0  0  0  0  0  0  0
  -30.3252  -10.9943  138.6225 C   0  0  0  0  0  0  0  0  0  0  0  0
  -31.4778  -10.9773  139.3598 N   0  0  0  0  0  0  0  0  0  0  0  0
  -31.3021  -10.2349  140.5030 C   0  0  0  0  0  0  0  0  0  0  0  0
  -32.1977   -9.9536  141.5422 C   0  0  0  0  0  0  0  0  0  0  0  0
  -31.7405   -9.1544  142.5938 C   0  0  0  0  0  0  0  0  0  0  0  0
  -30.4401   -8.6565  142.6020 C   0  0  0  0  0  0  0  0  0  0  0  0
  -29.5585   -8.9491  141.5549 C   0  0  0  0  0  0  0  0  0  0  0  0
  -29.9918   -9.7552  140.4822 C   0  0  0  0  0  0  0  0  0  0  0  0
  -32.3375  -11.4440  139.1086 H   0  0  0  0  0  0  0  0  0  0  0  0
  -27.9619  -10.0120  138.8354 C   0  0  0  0  0  0  0  0  0  0  0  0
  -26.1077  -11.6940  138.7029 N   0  0  0  0  0  0  0  0  0  0  0  0
  -26.9208  -10.8557  139.5857 C   0  0  0  0  0  0  0  0  0  0  0  0
  -25.4226  -12.2045  139.2570 H   0  0  0  0  0  0  0  0  0  0  0  0
  -25.5844  -11.1080  138.0557 H   0  0  0  0  0  0  0  0  0  0  0  0
 12 13  1  0
 13 11  1  0
 11  1  1  0
  1  2  2  0
  2  3  1  0
  3  4  1  0
  4  5  2  0
  5  6  1  0
  6  7  2  0
  7  8  1  0
  8  9  2  0
  9  1  1  0
  9  4  1  0
 12 14  1  0
 12 15  1  0
  3 10  1  0
M  END
> <minimizedAffinity>
-6.03696

> <CNNscore>
0.6701571941

> <CNNaffinity>
5.0306029320

> <CNN_VS>
3.3712947369

> <CNNaffinity_variance>
0.0697423890

$$$$
Tryptamine_like


 15 16  0  0  0  0  0  0  0  0999 V2000
  -28.3550  -11.5501  140.7932 C   0  0  0  0  0  0  0  0  0  0  0  0
  -28.1289  -10.9466  142.0165 C   0  0  0  0  0  0  0  0  0  0  0  0
  -29.0884   -9.9903  142.2097 N   0  0  0  0  0  0  0  0  0  0  0  0
  -29.9402   -9.9446  141.1321 C   0  0  0  0  0  0  0  0  0  0  0  0
  -31.0503   -9.1246  140.8941 C   0  0  0  0  0  0  0  0  0  0  0  0
  -31.7442   -9.3047  139.6943 C   0  0  0  0  0  0  0  0  0  0  0  0
  -31.3429  -10.2680  138.7724 C   0  0  0  0  0  0  0  0  0  0  0  0
  -30.2300  -11.0780  139.0270 C   0  0  0  0  0  0  0  0  0  0  0  0
  -29.5093  -10.9165  140.2281 C   0  0  0  0  0  0  0  0  0  0  0  0
  -29.1643   -9.3965  143.0231 H   0  0  0  0  0  0  0  0  0  0  0  0
  -27.5280  -12.6401  140.1818 C   0  0  0  0  0  0  0  0  0  0  0  0
  -26.1142  -11.0631  138.8407 N   0  0  0  0  0  0  0  0  0  0  0  0
  -26.9301  -12.2783  138.8143 C   0  0  0  0  0  0  0  0  0  0  0  0
  -25.7270  -10.8949  137.9139 H   0  0  0  0  0  0  0  0  0  0  0  0
  -25.3247  -11.1908  139.4703 H   0  0  0  0  0  0  0  0  0  0  0  0
 12 13  1  0
 13 11  1  0
 11  1  1  0
  1  2  2  0
  2  3  1  0
  3  4  1  0
  4  5  2  0
  5  6  1  0
  6  7  2  0
  7  8  1  0
  8  9  2  0
  9  1  1  0
  9  4  1  0
 12 14  1  0
 12 15  1  0
  3 10  1  0
M  END
> <minimizedAffinity>
-6.15247

> <CNNscore>
0.6458261013

> <CNNaffinity>
4.6759438515

> <CNN_VS>
3.0198466778

> <CNNaffinity_variance>
0.0279577132

$$$$
Tryptamine_like


 15 16  0  0  0  0  0  0  0  0999 V2000
  -24.9661  -14.7181  144.7892 C   0  0  0  0  0  0  0  0  0  0  0  0
  -25.2579  -13.9664  145.9124 C   0  0  0  0  0  0  0  0  0  0  0  0
  -24.9539  -14.7101  147.0201 N   0  0  0  0  0  0  0  0  0  0  0  0
  -24.4743  -15.9437  146.6497 C   0  0  0  0  0  0  0  0  0  0  0  0
  -24.0506  -17.0207  147.4383 C   0  0  0  0  0  0  0  0  0  0  0  0
  -23.6003  -18.1686  146.7803 C   0  0  0  0  0  0  0  0  0  0  0  0
  -23.5739  -18.2332  145.3896 C   0  0  0  0  0  0  0  0  0  0  0  0
  -24.0022  -17.1470  144.6176 C   0  0  0  0  0  0  0  0  0  0  0  0
  -24.4643  -15.9770  145.2546 C   0  0  0  0  0  0  0  0  0  0  0  0
  -25.0666  -14.4049  147.9762 H   0  0  0  0  0  0  0  0  0  0  0  0
  -25.1643  -14.2906  143.3666 C   0  0  0  0  0  0  0  0  0  0  0  0
  -26.7144  -13.2450  141.6967 N   0  0  0  0  0  0  0  0  0  0  0  0
  -26.5362  -13.6581  143.0898 C   0  0  0  0  0  0  0  0  0  0  0  0
  -27.6496  -12.8608  141.5743 H   0  0  0  0  0  0  0  0  0  0  0  0
  -26.6474  -14.0557  141.0847 H   0  0  0  0  0  0  0  0  0  0  0  0
 12 13  1  0
 13 11  1  0
 11  1  1  0
  1  2  2  0
  2  3  1  0
  3  4  1  0
  4  5  2  0
  5  6  1  0
  6  7  2  0
  7  8  1  0
  8  9  2  0
  9  1  1  0
  9  4  1  0
 12 14  1  0
 12 15  1  0
  3 10  1  0
M  END
> <minimizedAffinity>
-6.10406

> <CNNscore>
0.6391324997

> <CNNaffinity>
4.1821694374

> <CNN_VS>
2.6729605198

> <CNNaffinity_variance>
0.4985940456

$$$$
Tryptamine_like


 15 16  0  0  0  0  0  0  0  0999 V2000
  -27.3502  -15.5090  145.0495 C   0  0  0  0  0  0  0  0  0  0  0  0
  -26.9216  -16.8139  145.2087 C   0  0  0  0  0  0  0  0  0  0  0  0
  -27.5057  -17.3253  146.3355 N   0  0  0  0  0  0  0  0  0  0  0  0
  -28.3065  -16.3792  146.9293 C   0  0  0  0  0  0  0  0  0  0  0  0
  -29.0831  -16.4562  148.0921 C   0  0  0  0  0  0  0  0  0  0  0  0
  -29.8116  -15.3221  148.4616 C   0  0  0  0  0  0  0  0  0  0  0  0
  -29.7649  -14.1599  147.6961 C   0  0  0  0  0  0  0  0  0  0  0  0
  -28.9821  -14.1011  146.5371 C   0  0  0  0  0  0  0  0  0  0  0  0
  -28.2345  -15.2294  146.1418 C   0  0  0  0  0  0  0  0  0  0  0  0
  -27.3699  -18.2617  146.6889 H   0  0  0  0  0  0  0  0  0  0  0  0
  -26.9406  -14.5744  143.9519 C   0  0  0  0  0  0  0  0  0  0  0  0
  -24.6837  -14.2518  142.9095 N   0  0  0  0  0  0  0  0  0  0  0  0
  -25.5118  -14.0298  144.0960 C   0  0  0  0  0  0  0  0  0  0  0  0
  -23.7620  -13.8451  143.0588 H   0  0  0  0  0  0  0  0  0  0  0  0
  -25.0906  -13.7717  142.1094 H   0  0  0  0  0  0  0  0  0  0  0  0
 12 13  1  0
 13 11  1  0
 11  1  1  0
  1  2  2  0
  2  3  1  0
  3  4  1  0
  4  5  2  0
  5  6  1  0
  6  7  2  0
  7  8  1  0
  8  9  2  0
  9  1  1  0
  9  4  1  0
 12 14  1  0
 12 15  1  0
  3 10  1  0
M  END
> <minimizedAffinity>
-6.20163

> <CNNscore>
0.6338098049

> <CNNaffinity>
3.7344777584

> <CNN_VS>
2.3669486046

> <CNNaffinity_variance>
0.9054253101

$$$$
Tryptamine_like


 15 16  0  0  0  0  0  0  0  0999 V2000
  -30.4163  -10.0626  140.7203 C   0  0  0  0  0  0  0  0  0  0  0  0
  -29.7267  -10.1257  141.9171 C   0  0  0  0  0  0  0  0  0  0  0  0
  -28.5635  -10.8156  141.7088 N   0  0  0  0  0  0  0  0  0  0  0  0
  -28.4753  -11.2174  140.3974 C   0  0  0  0  0  0  0  0  0  0  0  0
  -27.4750  -11.9471  139.7430 C   0  0  0  0  0  0  0  0  0  0  0  0
  -27.6502  -12.2108  138.3816 C   0  0  0  0  0  0  0  0  0  0  0  0
  -28.7802  -11.7601  137.7043 C   0  0  0  0  0  0  0  0  0  0  0  0
  -29.7703  -11.0328  138.3752 C   0  0  0  0  0  0  0  0  0  0  0  0
  -29.6213  -10.7544  139.7495 C   0  0  0  0  0  0  0  0  0  0  0  0
  -27.8662  -11.0092  142.4134 H   0  0  0  0  0  0  0  0  0  0  0  0
  -31.7486   -9.4112  140.5040 C   0  0  0  0  0  0  0  0  0  0  0  0
  -32.2349   -7.2633  141.7018 N   0  0  0  0  0  0  0  0  0  0  0  0
  -31.6978   -7.8764  140.4857 C   0  0  0  0  0  0  0  0  0  0  0  0
  -32.1472   -6.2507  141.6377 H   0  0  0  0  0  0  0  0  0  0  0  0
  -31.6856   -7.5555  142.5074 H   0  0  0  0  0  0  0  0  0  0  0  0
 12 13  1  0
 13 11  1  0
 11  1  1  0
  1  2  2  0
  2  3  1  0
  3  4  1  0
  4  5  2  0
  5  6  1  0
  6  7  2  0
  7  8  1  0
  8  9  2  0
  9  1  1  0
  9  4  1  0
 12 14  1  0
 12 15  1  0
  3 10  1  0
M  END
> <minimizedAffinity>
-6.52748

> <CNNscore>
0.6180472374

> <CNNaffinity>
4.2832703590

> <CNN_VS>
2.6472635269

> <CNNaffinity_variance>
0.0549791455

$$$$
Tryptamine_like


 15 16  0  0  0  0  0  0  0  0999 V2000
  -29.8070  -10.7074  139.7276 C   0  0  0  0  0  0  0  0  0  0  0  0
  -30.9157  -10.3575  138.9791 C   0  0  0  0  0  0  0  0  0  0  0  0
  -31.7681   -9.6451  139.7779 N   0  0  0  0  0  0  0  0  0  0  0  0
  -31.2470   -9.5247  141.0440 C   0  0  0  0  0  0  0  0  0  0  0  0
  -31.7703   -8.8915  142.1782 C   0  0  0  0  0  0  0  0  0  0  0  0
  -31.0072   -8.9235  143.3488 C   0  0  0  0  0  0  0  0  0  0  0  0
  -29.7702   -9.5620  143.3802 C   0  0  0  0  0  0  0  0  0  0  0  0
  -29.2636  -10.1905  142.2367 C   0  0  0  0  0  0  0  0  0  0  0  0
  -30.0131  -10.1764  141.0424 C   0  0  0  0  0  0  0  0  0  0  0  0
  -32.6566   -9.2624  139.4874 H   0  0  0  0  0  0  0  0  0  0  0  0
  -28.6351  -11.5076  139.2459 C   0  0  0  0  0  0  0  0  0  0  0  0
  -26.1651  -11.5391  138.8182 N   0  0  0  0  0  0  0  0  0  0  0  0
  -27.3162  -10.7218  139.2058 C   0  0  0  0  0  0  0  0  0  0  0  0
  -25.3313  -10.9554  138.7844 H   0  0  0  0  0  0  0  0  0  0  0  0
  -26.3038  -11.9080  137.8797 H   0  0  0  0  0  0  0  0  0  0  0  0
 12 13  1  0
 13 11  1  0
 11  1  1  0
  1  2  2  0
  2  3  1  0
  3  4  1  0
  4  5  2  0
  5  6  1  0
  6  7  2  0
  7  8  1  0
  8  9  2  0
  9  1  1  0
  9  4  1  0
 12 14  1  0
 12 15  1  0
  3 10  1  0
M  END
> <minimizedAffinity>
-6.15700

> <CNNscore>
0.6057204008

> <CNNaffinity>
4.8647713661

> <CNN_VS>
2.9466912746

> <CNNaffinity_variance>
0.1045633927

$$$$
Tryptamine_like


 15 16  0  0  0  0  0  0  0  0999 V2000
  -31.4527  -10.0521  140.0434 C   0  0  0  0  0  0  0  0  0  0  0  0
  -32.4529  -10.5841  140.8362 C   0  0  0  0  0  0  0  0  0  0  0  0
  -32.5420   -9.8357  141.9783 N   0  0  0  0  0  0  0  0  0  0  0  0
  -31.6127   -8.8233  141.9590 C   0  0  0  0  0  0  0  0  0  0  0  0
  -31.3407   -7.8305  142.9086 C   0  0  0  0  0  0  0  0  0  0  0  0
  -30.3262   -6.9145  142.6167 C   0  0  0  0  0  0  0  0  0  0  0  0
  -29.6154   -6.9896  141.4218 C   0  0  0  0  0  0  0  0  0  0  0  0
  -29.9006   -7.9896  140.4847 C   0  0  0  0  0  0  0  0  0  0  0  0
  -30.9171   -8.9290  140.7539 C   0  0  0  0  0  0  0  0  0  0  0  0
  -33.1921   -9.9997  142.7336 H   0  0  0  0  0  0  0  0  0  0  0  0
  -31.0121  -10.5763  138.7104 C   0  0  0  0  0  0  0  0  0  0  0  0
  -29.4018  -12.1013  137.5417 N   0  0  0  0  0  0  0  0  0  0  0  0
  -29.6588  -11.3018  138.7408 C   0  0  0  0  0  0  0  0  0  0  0  0
  -28.4817  -12.5320  137.6125 H   0  0  0  0  0  0  0  0  0  0  0  0
  -29.3815  -11.4980  136.7221 H   0  0  0  0  0  0  0  0  0  0  0  0
 12 13  1  0
 13 11  1  0
 11  1  1  0
  1  2  2  0
  2  3  1  0
  3  4  1  0
  4  5  2  0
  5  6  1  0
  6  7  2  0
  7  8  1  0
  8  9  2  0
  9  1  1  0
  9  4  1  0
 12 14  1  0
 12 15  1  0
  3 10  1  0
M  END
> <minimizedAffinity>
-5.93017

> <CNNscore>
0.5933480263

> <CNNaffinity>
4.4149513245

> <CNN_VS>
2.6196026802

> <CNNaffinity_variance>
0.0002146856

$$$$
Tryptamine_like


 15 16  0  0  0  0  0  0  0  0999 V2000
  -30.4850  -11.3791  137.8174 C   0  0  0  0  0  0  0  0  0  0  0  0
  -31.3914  -10.4466  138.2872 C   0  0  0  0  0  0  0  0  0  0  0  0
  -30.9782  -10.0279  139.5227 N   0  0  0  0  0  0  0  0  0  0  0  0
  -29.8192  -10.6731  139.8822 C   0  0  0  0  0  0  0  0  0  0  0  0
  -29.0519  -10.5657  141.0489 C   0  0  0  0  0  0  0  0  0  0  0  0
  -27.9001  -11.3521  141.1421 C   0  0  0  0  0  0  0  0  0  0  0  0
  -27.5320  -12.2087  140.1079 C   0  0  0  0  0  0  0  0  0  0  0  0
  -28.3120  -12.3035  138.9494 C   0  0  0  0  0  0  0  0  0  0  0  0
  -29.4808  -11.5240  138.8292 C   0  0  0  0  0  0  0  0  0  0  0  0
  -31.4534   -9.3456  140.0961 H   0  0  0  0  0  0  0  0  0  0  0  0
  -30.5656  -12.1050  136.5088 C   0  0  0  0  0  0  0  0  0  0  0  0
  -31.8399  -11.9089  134.3589 N   0  0  0  0  0  0  0  0  0  0  0  0
  -31.9326  -11.9963  135.8173 C   0  0  0  0  0  0  0  0  0  0  0  0
  -32.7768  -11.8670  133.9619 H   0  0  0  0  0  0  0  0  0  0  0  0
  -31.4017  -12.7502  133.9896 H   0  0  0  0  0  0  0  0  0  0  0  0
 12 13  1  0
 13 11  1  0
 11  1  1  0
  1  2  2  0
  2  3  1  0
  3  4  1  0
  4  5  2  0
  5  6  1  0
  6  7  2  0
  7  8  1  0
  8  9  2  0
  9  1  1  0
  9  4  1  0
 12 14  1  0
 12 15  1  0
  3 10  1  0
M  END
> <minimizedAffinity>
-6.52436

> <CNNscore>
0.5773319006

> <CNNaffinity>
5.0281257629

> <CNN_VS>
2.9028973579

> <CNNaffinity_variance>
0.6039453149

$$$$
Tryptamine_like


 15 16  0  0  0  0  0  0  0  0999 V2000
  -29.3374  -11.6778  137.5562 C   0  0  0  0  0  0  0  0  0  0  0  0
  -28.1488  -12.0949  138.1265 C   0  0  0  0  0  0  0  0  0  0  0  0
  -28.1223  -11.6707  139.4272 N   0  0  0  0  0  0  0  0  0  0  0  0
  -29.2684  -10.9730  139.7250 C   0  0  0  0  0  0  0  0  0  0  0  0
  -29.6644  -10.3565  140.9185 C   0  0  0  0  0  0  0  0  0  0  0  0
  -30.9048   -9.7126  140.9351 C   0  0  0  0  0  0  0  0  0  0  0  0
  -31.7151   -9.6895  139.8029 C   0  0  0  0  0  0  0  0  0  0  0  0
  -31.3022  -10.3105  138.6184 C   0  0  0  0  0  0  0  0  0  0  0  0
  -30.0542  -10.9654  138.5719 C   0  0  0  0  0  0  0  0  0  0  0  0
  -27.3703  -11.8389  140.0800 H   0  0  0  0  0  0  0  0  0  0  0  0
  -29.7665  -11.9149  136.1400 C   0  0  0  0  0  0  0  0  0  0  0  0
  -31.7560  -11.9417  134.6150 N   0  0  0  0  0  0  0  0  0  0  0  0
  -31.2723  -12.1694  135.9779 C   0  0  0  0  0  0  0  0  0  0  0  0
  -32.7511  -12.1533  134.5690 H   0  0  0  0  0  0  0  0  0  0  0  0
  -31.2901  -12.5788  133.9722 H   0  0  0  0  0  0  0  0  0  0  0  0
 12 13  1  0
 13 11  1  0
 11  1  1  0
  1  2  2  0
  2  3  1  0
  3  4  1  0
  4  5  2  0
  5  6  1  0
  6  7  2  0
  7  8  1  0
  8  9  2  0
  9  1  1  0
  9  4  1  0
 12 14  1  0
 12 15  1  0
  3 10  1  0
M  END
> <minimizedAffinity>
-6.61054

> <CNNscore>
0.5708414316

> <CNNaffinity>
4.9879202843

> <CNN_VS>
2.8473114967

> <CNNaffinity_variance>
0.5598005056

$$$$
Tryptamine_like


 15 16  0  0  0  0  0  0  0  0999 V2000
  -30.2564  -10.8656  138.9049 C   0  0  0  0  0  0  0  0  0  0  0  0
  -28.9613  -10.3826  138.8702 C   0  0  0  0  0  0  0  0  0  0  0  0
  -28.7481   -9.6384  139.9986 N   0  0  0  0  0  0  0  0  0  0  0  0
  -29.8818   -9.6134  140.7750 C   0  0  0  0  0  0  0  0  0  0  0  0
  -30.1228   -8.9773  141.9991 C   0  0  0  0  0  0  0  0  0  0  0  0
  -31.3886   -9.1308  142.5716 C   0  0  0  0  0  0  0  0  0  0  0  0
  -32.3710   -9.8922  141.9439 C   0  0  0  0  0  0  0  0  0  0  0  0
  -32.1123  -10.5201  140.7200 C   0  0  0  0  0  0  0  0  0  0  0  0
  -30.8450  -10.3802  140.1178 C   0  0  0  0  0  0  0  0  0  0  0  0
  -27.8852   -9.1685  140.2327 H   0  0  0  0  0  0  0  0  0  0  0  0
  -30.9092  -11.7137  137.8559 C   0  0  0  0  0  0  0  0  0  0  0  0
  -30.7512  -12.0343  135.3746 N   0  0  0  0  0  0  0  0  0  0  0  0
  -30.0160  -12.0012  136.6401 C   0  0  0  0  0  0  0  0  0  0  0  0
  -30.1005  -12.2011  134.6091 H   0  0  0  0  0  0  0  0  0  0  0  0
  -31.1822  -11.1285  135.2018 H   0  0  0  0  0  0  0  0  0  0  0  0
 12 13  1  0
 13 11  1  0
 11  1  1  0
  1  2  2  0
  2  3  1  0
  3  4  1  0
  4  5  2  0
  5  6  1  0
  6  7  2  0
  7  8  1  0
  8  9  2  0
  9  1  1  0
  9  4  1  0
 12 14  1  0
 12 15  1  0
  3 10  1  0
M  END
> <minimizedAffinity>
-5.97798

> <CNNscore>
0.5616863370

> <CNNaffinity>
5.4116959572

> <CNN_VS>
3.0396757126

> <CNNaffinity_variance>
1.4037805796

$$$$
Tryptamine_like


 15 16  0  0  0  0  0  0  0  0999 V2000
  -29.1332   -3.1249  142.1526 C   0  0  0  0  0  0  0  0  0  0  0  0
  -29.0709   -2.6723  140.8476 C   0  0  0  0  0  0  0  0  0  0  0  0
  -29.3581   -3.7186  140.0139 N   0  0  0  0  0  0  0  0  0  0  0  0
  -29.6009   -4.8575  140.7439 C   0  0  0  0  0  0  0  0  0  0  0  0
  -29.9233   -6.1515  140.3159 C   0  0  0  0  0  0  0  0  0  0  0  0
  -30.1235   -7.1276  141.2961 C   0  0  0  0  0  0  0  0  0  0  0  0
  -30.0074   -6.8187  142.6488 C   0  0  0  0  0  0  0  0  0  0  0  0
  -29.6835   -5.5198  143.0579 C   0  0  0  0  0  0  0  0  0  0  0  0
  -29.4732   -4.5155  142.0908 C   0  0  0  0  0  0  0  0  0  0  0  0
  -29.3858   -3.6700  139.0055 H   0  0  0  0  0  0  0  0  0  0  0  0
  -28.8705   -2.3091  143.3820 C   0  0  0  0  0  0  0  0  0  0  0  0
  -31.2380   -1.4855  143.4166 N   0  0  0  0  0  0  0  0  0  0  0  0
  -29.8274   -1.1210  143.5595 C   0  0  0  0  0  0  0  0  0  0  0  0
  -31.8179   -0.6628  143.5721 H   0  0  0  0  0  0  0  0  0  0  0  0
  -31.4935   -2.1643  144.1308 H   0  0  0  0  0  0  0  0  0  0  0  0
 12 13  1  0
 13 11  1  0
 11  1  1  0
  1  2  2  0
  2  3  1  0
  3  4  1  0
  4  5  2  0
  5  6  1  0
  6  7  2  0
  7  8  1  0
  8  9  2  0
  9  1  1  0
  9  4  1  0
 12 14  1  0
 12 15  1  0
  3 10  1  0
M  END
> <minimizedAffinity>
-6.15573

> <CNNscore>
0.5576363802

> <CNNaffinity>
3.5656311512

> <CNN_VS>
1.9883255959

> <CNNaffinity_variance>
0.9307642579

$$$$
Tryptamine_like


 15 16  0  0  0  0  0  0  0  0999 V2000
  -24.8814  -16.1012  145.1352 C   0  0  0  0  0  0  0  0  0  0  0  0
  -26.0786  -16.4559  145.7291 C   0  0  0  0  0  0  0  0  0  0  0  0
  -26.7404  -15.3116  146.0827 N   0  0  0  0  0  0  0  0  0  0  0  0
  -25.9984  -14.2063  145.7409 C   0  0  0  0  0  0  0  0  0  0  0  0
  -26.2752  -12.8448  145.9167 C   0  0  0  0  0  0  0  0  0  0  0  0
  -25.3259  -11.9259  145.4604 C   0  0  0  0  0  0  0  0  0  0  0  0
  -24.1493  -12.3544  144.8514 C   0  0  0  0  0  0  0  0  0  0  0  0
  -23.8893  -13.7197  144.6851 C   0  0  0  0  0  0  0  0  0  0  0  0
  -24.8280  -14.6693  145.1384 C   0  0  0  0  0  0  0  0  0  0  0  0
  -27.6433  -15.2760  146.5339 H   0  0  0  0  0  0  0  0  0  0  0  0
  -23.8416  -17.0465  144.6145 C   0  0  0  0  0  0  0  0  0  0  0  0
  -22.3498  -18.5355  145.9717 N   0  0  0  0  0  0  0  0  0  0  0  0
  -23.6986  -18.3339  145.4396 C   0  0  0  0  0  0  0  0  0  0  0  0
  -22.3294  -19.3877  146.5289 H   0  0  0  0  0  0  0  0  0  0  0  0
  -22.1072  -17.7698  146.5970 H   0  0  0  0  0  0  0  0  0  0  0  0
 12 13  1  0
 13 11  1  0
 11  1  1  0
  1  2  2  0
  2  3  1  0
  3  4  1  0
  4  5  2  0
  5  6  1  0
  6  7  2  0
  7  8  1  0
  8  9  2  0
  9  1  1  0
  9  4  1  0
 12 14  1  0
 12 15  1  0
  3 10  1  0
M  END
> <minimizedAffinity>
-6.27976

> <CNNscore>
0.5265111923

> <CNNaffinity>
3.7872238159

> <CNN_VS>
1.9940156937

> <CNNaffinity_variance>
0.7471584678

$$$$
MET_like


 17 18  0  0  0  0  0  0  0  0999 V2000
  -31.1449  -10.2457  140.2459 C   0  0  0  0  0  0  0  0  0  0  0  0
  -32.3044  -10.5466  140.9333 C   0  0  0  0  0  0  0  0  0  0  0  0
  -32.6383   -9.4665  141.7079 N   0  0  0  0  0  0  0  0  0  0  0  0
  -31.7232   -8.4561  141.5298 C   0  0  0  0  0  0  0  0  0  0  0  0
  -31.6711   -7.1811  142.1050 C   0  0  0  0  0  0  0  0  0  0  0  0
  -30.6047   -6.3522  141.7481 C   0  0  0  0  0  0  0  0  0  0  0  0
  -29.6289   -6.7846  140.8543 C   0  0  0  0  0  0  0  0  0  0  0  0
  -29.6959   -8.0631  140.2876 C   0  0  0  0  0  0  0  0  0  0  0  0
  -30.7654   -8.9181  140.6275 C   0  0  0  0  0  0  0  0  0  0  0  0
  -33.4369   -9.4112  142.3271 H   0  0  0  0  0  0  0  0  0  0  0  0
  -30.4326  -11.1341  139.2816 C   0  0  0  0  0  0  0  0  0  0  0  0
  -31.0731  -11.0686  137.8922 C   0  0  0  0  0  0  0  0  0  0  0  0
  -30.4295  -12.0437  136.9153 N   0  0  0  0  0  0  0  0  0  0  0  0
  -28.9248  -11.9891  137.0112 C   0  0  0  0  0  0  0  0  0  0  0  0
  -30.6827  -12.9827  137.2517 H   0  0  0  0  0  0  0  0  0  0  0  0
  -32.4392  -11.8983  135.3885 C   0  0  0  0  0  0  0  0  0  0  0  0
  -30.9277  -11.9833  135.4869 C   0  0  0  0  0  0  0  0  0  0  0  0
 16 17  1  0
 17 13  1  0
 13 14  1  0
 13 12  1  0
 12 11  1  0
 11  1  1  0
  1  2  2  0
  2  3  1  0
  3  4  1  0
  4  5  2  0
  5  6  1  0
  6  7  2  0
  7  8  1  0
  8  9  2  0
  9  1  1  0
  9  4  1  0
 13 15  1  0
  3 10  1  0
M  CHG 1  13   1
M  END
> <minimizedAffinity>
-6.85109

> <CNNscore>
0.6291800737

> <CNNaffinity>
5.9809594154

> <CNN_VS>
3.7631003857

> <CNNaffinity_variance>
0.6375992298

$$$$
MET_like


 17 18  0  0  0  0  0  0  0  0999 V2000
  -29.9961   -5.7860  141.9295 C   0  0  0  0  0  0  0  0  0  0  0  0
  -30.0105   -5.7815  140.5484 C   0  0  0  0  0  0  0  0  0  0  0  0
  -29.5588   -4.5616  140.1171 N   0  0  0  0  0  0  0  0  0  0  0  0
  -29.2357   -3.7697  141.1934 C   0  0  0  0  0  0  0  0  0  0  0  0
  -28.7325   -2.4640  141.2276 C   0  0  0  0  0  0  0  0  0  0  0  0
  -28.5048   -1.8898  142.4807 C   0  0  0  0  0  0  0  0  0  0  0  0
  -28.7737   -2.5940  143.6512 C   0  0  0  0  0  0  0  0  0  0  0  0
  -29.2767   -3.8996  143.5995 C   0  0  0  0  0  0  0  0  0  0  0  0
  -29.5106   -4.5043  142.3465 C   0  0  0  0  0  0  0  0  0  0  0  0
  -29.4751   -4.2736  139.1505 H   0  0  0  0  0  0  0  0  0  0  0  0
  -30.4000   -6.9175  142.8145 C   0  0  0  0  0  0  0  0  0  0  0  0
  -29.8241   -8.2448  142.3130 C   0  0  0  0  0  0  0  0  0  0  0  0
  -30.8162   -9.0129  141.4498 N   0  0  0  0  0  0  0  0  0  0  0  0
  -32.0221   -9.4296  142.2549 C   0  0  0  0  0  0  0  0  0  0  0  0
  -31.1757   -8.3327  140.7664 H   0  0  0  0  0  0  0  0  0  0  0  0
  -29.1014   -9.7075  139.7269 C   0  0  0  0  0  0  0  0  0  0  0  0
  -30.2443  -10.1453  140.6233 C   0  0  0  0  0  0  0  0  0  0  0  0
 16 17  1  0
 17 13  1  0
 13 14  1  0
 13 12  1  0
 12 11  1  0
 11  1  1  0
  1  2  2  0
  2  3  1  0
  3  4  1  0
  4  5  2  0
  5  6  1  0
  6  7  2  0
  7  8  1  0
  8  9  2  0
  9  1  1  0
  9  4  1  0
 13 15  1  0
  3 10  1  0
M  CHG 1  13   1
M  END
> <minimizedAffinity>
-6.58332

> <CNNscore>
0.6212244034

> <CNNaffinity>
5.1963696480

> <CNN_VS>
3.2281117439

> <CNNaffinity_variance>
0.3843477666

$$$$
MET_like


 17 18  0  0  0  0  0  0  0  0999 V2000
  -28.6390  -10.2495  141.1077 C   0  0  0  0  0  0  0  0  0  0  0  0
  -28.6698  -10.9231  142.3130 C   0  0  0  0  0  0  0  0  0  0  0  0
  -29.4293  -10.1969  143.1928 N   0  0  0  0  0  0  0  0  0  0  0  0
  -29.9084   -9.0634  142.5799 C   0  0  0  0  0  0  0  0  0  0  0  0
  -30.7247   -8.0460  143.0873 C   0  0  0  0  0  0  0  0  0  0  0  0
  -31.0508   -6.9899  142.2328 C   0  0  0  0  0  0  0  0  0  0  0  0
  -30.5754   -6.9534  140.9249 C   0  0  0  0  0  0  0  0  0  0  0  0
  -29.7599   -7.9795  140.4326 C   0  0  0  0  0  0  0  0  0  0  0  0
  -29.4200   -9.0600  141.2736 C   0  0  0  0  0  0  0  0  0  0  0  0
  -29.6137  -10.4468  144.1560 H   0  0  0  0  0  0  0  0  0  0  0  0
  -27.9338  -10.6872  139.8676 C   0  0  0  0  0  0  0  0  0  0  0  0
  -28.7131  -11.7922  139.1488 C   0  0  0  0  0  0  0  0  0  0  0  0
  -29.6029  -11.2420  138.0421 N   0  0  0  0  0  0  0  0  0  0  0  0
  -31.0256  -11.0883  138.5201 C   0  0  0  0  0  0  0  0  0  0  0  0
  -29.2748  -10.2815  137.8727 H   0  0  0  0  0  0  0  0  0  0  0  0
  -30.8383  -12.0151  135.9763 C   0  0  0  0  0  0  0  0  0  0  0  0
  -29.5079  -11.9390  136.7014 C   0  0  0  0  0  0  0  0  0  0  0  0
 16 17  1  0
 17 13  1  0
 13 14  1  0
 13 12  1  0
 12 11  1  0
 11  1  1  0
  1  2  2  0
  2  3  1  0
  3  4  1  0
  4  5  2  0
  5  6  1  0
  6  7  2  0
  7  8  1  0
  8  9  2  0
  9  1  1  0
  9  4  1  0
 13 15  1  0
  3 10  1  0
M  CHG 1  13   1
M  END
> <minimizedAffinity>
-6.32571

> <CNNscore>
0.6147362590

> <CNNaffinity>
5.9443926811

> <CNN_VS>
3.6542336941

> <CNNaffinity_variance>
0.4212333262

$$$$
MET_like


 17 18  0  0  0  0  0  0  0  0999 V2000
  -30.0501   -6.3998  141.8659 C   0  0  0  0  0  0  0  0  0  0  0  0
  -30.2084   -6.4664  140.4955 C   0  0  0  0  0  0  0  0  0  0  0  0
  -29.9082   -5.2380  139.9671 N   0  0  0  0  0  0  0  0  0  0  0  0
  -29.5425   -4.3695  140.9682 C   0  0  0  0  0  0  0  0  0  0  0  0
  -29.1500   -3.0281  140.8931 C   0  0  0  0  0  0  0  0  0  0  0  0
  -28.8422   -2.3750  142.0892 C   0  0  0  0  0  0  0  0  0  0  0  0
  -28.9277   -3.0381  143.3103 C   0  0  0  0  0  0  0  0  0  0  0  0
  -29.3219   -4.3803  143.3680 C   0  0  0  0  0  0  0  0  0  0  0  0
  -29.6333   -5.0643  142.1740 C   0  0  0  0  0  0  0  0  0  0  0  0
  -29.9500   -4.9936  138.9859 H   0  0  0  0  0  0  0  0  0  0  0  0
  -30.2632   -7.5134  142.8359 C   0  0  0  0  0  0  0  0  0  0  0  0
  -31.5620   -8.2673  142.5360 C   0  0  0  0  0  0  0  0  0  0  0  0
  -31.3041   -9.6893  142.0557 N   0  0  0  0  0  0  0  0  0  0  0  0
  -29.8311  -10.0130  142.0948 C   0  0  0  0  0  0  0  0  0  0  0  0
  -31.7295  -10.3036  142.7632 H   0  0  0  0  0  0  0  0  0  0  0  0
  -31.0033  -10.0066  139.5657 C   0  0  0  0  0  0  0  0  0  0  0  0
  -31.9546  -10.0789  140.7452 C   0  0  0  0  0  0  0  0  0  0  0  0
 16 17  1  0
 17 13  1  0
 13 14  1  0
 13 12  1  0
 12 11  1  0
 11  1  1  0
  1  2  2  0
  2  3  1  0
  3  4  1  0
  4  5  2  0
  5  6  1  0
  6  7  2  0
  7  8  1  0
  8  9  2  0
  9  1  1  0
  9  4  1  0
 13 15  1  0
  3 10  1  0
M  CHG 1  13   1
M  END
> <minimizedAffinity>
-6.71652

> <CNNscore>
0.5910463333

> <CNNaffinity>
4.9095168114

> <CNN_VS>
2.9017519951

> <CNNaffinity_variance>
0.1516631395

$$$$
MET_like


 17 18  0  0  0  0  0  0  0  0999 V2000
  -30.7762  -10.1357  139.8690 C   0  0  0  0  0  0  0  0  0  0  0  0
  -31.8957   -9.3354  139.7520 C   0  0  0  0  0  0  0  0  0  0  0  0
  -32.1353   -8.7497  140.9677 N   0  0  0  0  0  0  0  0  0  0  0  0
  -31.1826   -9.1428  141.8777 C   0  0  0  0  0  0  0  0  0  0  0  0
  -31.0287   -8.7915  143.2237 C   0  0  0  0  0  0  0  0  0  0  0  0
  -29.9617   -9.3598  143.9240 C   0  0  0  0  0  0  0  0  0  0  0  0
  -29.0872  -10.2463  143.3015 C   0  0  0  0  0  0  0  0  0  0  0  0
  -29.2550  -10.5871  141.9540 C   0  0  0  0  0  0  0  0  0  0  0  0
  -30.3217  -10.0232  141.2229 C   0  0  0  0  0  0  0  0  0  0  0  0
  -32.9006   -8.1215  141.1773 H   0  0  0  0  0  0  0  0  0  0  0  0
  -30.1554  -10.9519  138.7850 C   0  0  0  0  0  0  0  0  0  0  0  0
  -31.1372  -11.1785  137.6319 C   0  0  0  0  0  0  0  0  0  0  0  0
  -30.5527  -12.0718  136.5457 N   0  0  0  0  0  0  0  0  0  0  0  0
  -29.0474  -11.9736  136.5187 C   0  0  0  0  0  0  0  0  0  0  0  0
  -30.7502  -13.0370  136.8429 H   0  0  0  0  0  0  0  0  0  0  0  0
  -32.6889  -11.9064  135.2040 C   0  0  0  0  0  0  0  0  0  0  0  0
  -31.1726  -11.9424  135.1705 C   0  0  0  0  0  0  0  0  0  0  0  0
 16 17  1  0
 17 13  1  0
 13 14  1  0
 13 12  1  0
 12 11  1  0
 11  1  1  0
  1  2  2  0
  2  3  1  0
  3  4  1  0
  4  5  2  0
  5  6  1  0
  6  7  2  0
  7  8  1  0
  8  9  2  0
  9  1  1  0
  9  4  1  0
 13 15  1  0
  3 10  1  0
M  CHG 1  13   1
M  END
> <minimizedAffinity>
-7.03192

> <CNNscore>
0.5844884515

> <CNNaffinity>
6.0710577965

> <CNN_VS>
3.5484631062

> <CNNaffinity_variance>
0.5345747471

$$$$
MET_like


 17 18  0  0  0  0  0  0  0  0999 V2000
  -27.9857  -11.6196  140.2950 C   0  0  0  0  0  0  0  0  0  0  0  0
  -27.2302  -12.7724  140.2073 C   0  0  0  0  0  0  0  0  0  0  0  0
  -26.8975  -13.1668  141.4770 N   0  0  0  0  0  0  0  0  0  0  0  0
  -27.4339  -12.2981  142.3976 C   0  0  0  0  0  0  0  0  0  0  0  0
  -27.3596  -12.3135  143.7952 C   0  0  0  0  0  0  0  0  0  0  0  0
  -27.9979  -11.2828  144.4896 C   0  0  0  0  0  0  0  0  0  0  0  0
  -28.6794  -10.2763  143.8110 C   0  0  0  0  0  0  0  0  0  0  0  0
  -28.7444  -10.2757  142.4124 C   0  0  0  0  0  0  0  0  0  0  0  0
  -28.1126  -11.3080  141.6876 C   0  0  0  0  0  0  0  0  0  0  0  0
  -26.3363  -13.9751  141.7137 H   0  0  0  0  0  0  0  0  0  0  0  0
  -28.5666  -10.8539  139.1536 C   0  0  0  0  0  0  0  0  0  0  0  0
  -29.1200  -11.7956  138.0804 C   0  0  0  0  0  0  0  0  0  0  0  0
  -30.4755  -11.3389  137.5576 N   0  0  0  0  0  0  0  0  0  0  0  0
  -31.2121  -10.5338  138.5995 C   0  0  0  0  0  0  0  0  0  0  0  0
  -30.2718  -10.6711  136.8016 H   0  0  0  0  0  0  0  0  0  0  0  0
  -31.9708  -11.9640  135.6173 C   0  0  0  0  0  0  0  0  0  0  0  0
  -31.3407  -12.4077  136.9241 C   0  0  0  0  0  0  0  0  0  0  0  0
 16 17  1  0
 17 13  1  0
 13 14  1  0
 13 12  1  0
 12 11  1  0
 11  1  1  0
  1  2  2  0
  2  3  1  0
  3  4  1  0
  4  5  2  0
  5  6  1  0
  6  7  2  0
  7  8  1  0
  8  9  2  0
  9  1  1  0
  9  4  1  0
 13 15  1  0
  3 10  1  0
M  CHG 1  13   1
M  END
> <minimizedAffinity>
-6.52065

> <CNNscore>
0.5799929500

> <CNNaffinity>
5.9293308258

> <CNN_VS>
3.4389700890

> <CNNaffinity_variance>
0.5941491127

$$$$
MET_like


 17 18  0  0  0  0  0  0  0  0999 V2000
  -28.6309  -14.4202  146.4738 C   0  0  0  0  0  0  0  0  0  0  0  0
  -29.2833  -13.2030  146.4923 C   0  0  0  0  0  0  0  0  0  0  0  0
  -30.1816  -13.2116  147.5273 N   0  0  0  0  0  0  0  0  0  0  0  0
  -30.1199  -14.4107  148.1968 C   0  0  0  0  0  0  0  0  0  0  0  0
  -30.8415  -14.8542  149.3111 C   0  0  0  0  0  0  0  0  0  0  0  0
  -30.5801  -16.1436  149.7813 C   0  0  0  0  0  0  0  0  0  0  0  0
  -29.6370  -16.9561  149.1580 C   0  0  0  0  0  0  0  0  0  0  0  0
  -28.9235  -16.4971  148.0443 C   0  0  0  0  0  0  0  0  0  0  0  0
  -29.1650  -15.1970  147.5527 C   0  0  0  0  0  0  0  0  0  0  0  0
  -30.8067  -12.4535  147.7698 H   0  0  0  0  0  0  0  0  0  0  0  0
  -27.5652  -14.8380  145.5167 C   0  0  0  0  0  0  0  0  0  0  0  0
  -26.2451  -14.1196  145.8106 C   0  0  0  0  0  0  0  0  0  0  0  0
  -25.6749  -13.4355  144.5752 N   0  0  0  0  0  0  0  0  0  0  0  0
  -26.5639  -13.6580  143.3767 C   0  0  0  0  0  0  0  0  0  0  0  0
  -25.7329  -12.4256  144.7645 H   0  0  0  0  0  0  0  0  0  0  0  0
  -23.3115  -12.5407  144.6456 C   0  0  0  0  0  0  0  0  0  0  0  0
  -24.2146  -13.7032  144.2787 C   0  0  0  0  0  0  0  0  0  0  0  0
 16 17  1  0
 17 13  1  0
 13 14  1  0
 13 12  1  0
 12 11  1  0
 11  1  1  0
  1  2  2  0
  2  3  1  0
  3  4  1  0
  4  5  2  0
  5  6  1  0
  6  7  2  0
  7  8  1  0
  8  9  2  0
  9  1  1  0
  9  4  1  0
 13 15  1  0
  3 10  1  0
M  CHG 1  13   1
M  END
> <minimizedAffinity>
-6.49211

> <CNNscore>
0.5588299036

> <CNNaffinity>
3.9874274731

> <CNN_VS>
2.2282936573

> <CNNaffinity_variance>
1.1021349430

$$$$
MET_like


 17 18  0  0  0  0  0  0  0  0999 V2000
  -30.7414  -11.4255  137.1999 C   0  0  0  0  0  0  0  0  0  0  0  0
  -31.6339  -10.6543  137.9184 C   0  0  0  0  0  0  0  0  0  0  0  0
  -31.0262  -10.2655  139.0837 N   0  0  0  0  0  0  0  0  0  0  0  0
  -29.7439  -10.7587  139.1354 C   0  0  0  0  0  0  0  0  0  0  0  0
  -28.7640  -10.6081  140.1234 C   0  0  0  0  0  0  0  0  0  0  0  0
  -27.5345  -11.2391  139.9183 C   0  0  0  0  0  0  0  0  0  0  0  0
  -27.2984  -11.9930  138.7720 C   0  0  0  0  0  0  0  0  0  0  0  0
  -28.2894  -12.1335  137.7930 C   0  0  0  0  0  0  0  0  0  0  0  0
  -29.5381  -11.5021  137.9735 C   0  0  0  0  0  0  0  0  0  0  0  0
  -31.4510   -9.7015  139.8087 H   0  0  0  0  0  0  0  0  0  0  0  0
  -30.9852  -12.0492  135.8664 C   0  0  0  0  0  0  0  0  0  0  0  0
  -32.4773  -12.3107  135.6426 C   0  0  0  0  0  0  0  0  0  0  0  0
  -32.9944  -11.6441  134.3746 N   0  0  0  0  0  0  0  0  0  0  0  0
  -34.2038  -10.7912  134.6683 C   0  0  0  0  0  0  0  0  0  0  0  0
  -32.2626  -10.9782  134.0918 H   0  0  0  0  0  0  0  0  0  0  0  0
  -34.5753  -13.1754  133.1307 C   0  0  0  0  0  0  0  0  0  0  0  0
  -33.1937  -12.5504  133.1783 C   0  0  0  0  0  0  0  0  0  0  0  0
 16 17  1  0
 17 13  1  0
 13 14  1  0
 13 12  1  0
 12 11  1  0
 11  1  1  0
  1  2  2  0
  2  3  1  0
  3  4  1  0
  4  5  2  0
  5  6  1  0
  6  7  2  0
  7  8  1  0
  8  9  2  0
  9  1  1  0
  9  4  1  0
 13 15  1  0
  3 10  1  0
M  CHG 1  13   1
M  END
> <minimizedAffinity>
-6.91095

> <CNNscore>
0.5526793599

> <CNNaffinity>
5.8561987877

> <CNN_VS>
3.2366001606

> <CNNaffinity_variance>
0.3245105147

$$$$
MET_like


 17 18  0  0  0  0  0  0  0  0999 V2000
  -28.7203  -11.0560  139.9682 C   0  0  0  0  0  0  0  0  0  0  0  0
  -27.4045  -11.3350  139.6549 C   0  0  0  0  0  0  0  0  0  0  0  0
  -27.3509  -11.7470  138.3489 N   0  0  0  0  0  0  0  0  0  0  0  0
  -28.6095  -11.7303  137.7959 C   0  0  0  0  0  0  0  0  0  0  0  0
  -29.0248  -12.0604  136.5007 C   0  0  0  0  0  0  0  0  0  0  0  0
  -30.3884  -11.9629  136.2127 C   0  0  0  0  0  0  0  0  0  0  0  0
  -31.2985  -11.5549  137.1840 C   0  0  0  0  0  0  0  0  0  0  0  0
  -30.8665  -11.2280  138.4750 C   0  0  0  0  0  0  0  0  0  0  0  0
  -29.4940  -11.3132  138.7902 C   0  0  0  0  0  0  0  0  0  0  0  0
  -26.5136  -12.0286  137.8549 H   0  0  0  0  0  0  0  0  0  0  0  0
  -29.2324  -10.5688  141.2823 C   0  0  0  0  0  0  0  0  0  0  0  0
  -29.5961   -9.0827  141.2178 C   0  0  0  0  0  0  0  0  0  0  0  0
  -31.0911   -8.8641  141.0259 N   0  0  0  0  0  0  0  0  0  0  0  0
  -31.4018   -7.4003  140.8337 C   0  0  0  0  0  0  0  0  0  0  0  0
  -31.3237   -9.3051  140.1257 H   0  0  0  0  0  0  0  0  0  0  0  0
  -32.8657  -10.6162  141.4406 C   0  0  0  0  0  0  0  0  0  0  0  0
  -31.9978   -9.5266  142.0415 C   0  0  0  0  0  0  0  0  0  0  0  0
 16 17  1  0
 17 13  1  0
 13 14  1  0
 13 12  1  0
 12 11  1  0
 11  1  1  0
  1  2  2  0
  2  3  1  0
  3  4  1  0
  4  5  2  0
  5  6  1  0
  6  7  2  0
  7  8  1  0
  8  9  2  0
  9  1  1  0
  9  4  1  0
 13 15  1  0
  3 10  1  0
M  CHG 1  13   1
M  END
> <minimizedAffinity>
-7.25985

> <CNNscore>
0.5423175693

> <CNNaffinity>
5.1350188255

> <CNN_VS>
2.7848110199

> <CNNaffinity_variance>
0.1093428209

$$$$
MET_like


 17 18  0  0  0  0  0  0  0  0999 V2000
  -27.8463  -11.5112  142.9460 C   0  0  0  0  0  0  0  0  0  0  0  0
  -28.5795  -10.3937  143.2943 C   0  0  0  0  0  0  0  0  0  0  0  0
  -29.1025   -9.8482  142.1510 N   0  0  0  0  0  0  0  0  0  0  0  0
  -28.7349  -10.5978  141.0587 C   0  0  0  0  0  0  0  0  0  0  0  0
  -29.0436  -10.4218  139.7049 C   0  0  0  0  0  0  0  0  0  0  0  0
  -28.5163  -11.3416  138.7950 C   0  0  0  0  0  0  0  0  0  0  0  0
  -27.7102  -12.3923  139.2241 C   0  0  0  0  0  0  0  0  0  0  0  0
  -27.4111  -12.5544  140.5822 C   0  0  0  0  0  0  0  0  0  0  0  0
  -27.9352  -11.6421  141.5221 C   0  0  0  0  0  0  0  0  0  0  0  0
  -29.6735   -9.0139  142.1052 H   0  0  0  0  0  0  0  0  0  0  0  0
  -27.1121  -12.4137  143.8802 C   0  0  0  0  0  0  0  0  0  0  0  0
  -26.4140  -13.5459  143.1212 C   0  0  0  0  0  0  0  0  0  0  0  0
  -25.0216  -13.8320  143.6677 N   0  0  0  0  0  0  0  0  0  0  0  0
  -24.8695  -15.2911  144.0197 C   0  0  0  0  0  0  0  0  0  0  0  0
  -24.3769  -13.6806  142.8800 H   0  0  0  0  0  0  0  0  0  0  0  0
  -23.1168  -12.4179  144.5414 C   0  0  0  0  0  0  0  0  0  0  0  0
  -24.5338  -12.9109  144.7659 C   0  0  0  0  0  0  0  0  0  0  0  0
 16 17  1  0
 17 13  1  0
 13 14  1  0
 13 12  1  0
 12 11  1  0
 11  1  1  0
  1  2  2  0
  2  3  1  0
  3  4  1  0
  4  5  2  0
  5  6  1  0
  6  7  2  0
  7  8  1  0
  8  9  2  0
  9  1  1  0
  9  4  1  0
 13 15  1  0
  3 10  1  0
M  CHG 1  13   1
M  END
> <minimizedAffinity>
-6.41907

> <CNNscore>
0.5420837402

> <CNNaffinity>
4.2951192856

> <CNN_VS>
2.3283143044

> <CNNaffinity_variance>
0.4504402578

$$$$
MET_like


 17 18  0  0  0  0  0  0  0  0999 V2000
  -28.9329  -10.3238  139.9792 C   0  0  0  0  0  0  0  0  0  0  0  0
  -27.6261  -10.7388  139.8126 C   0  0  0  0  0  0  0  0  0  0  0  0
  -27.5440  -11.4418  138.6390 N   0  0  0  0  0  0  0  0  0  0  0  0
  -28.7738  -11.4837  138.0260 C   0  0  0  0  0  0  0  0  0  0  0  0
  -29.1541  -12.0789  136.8176 C   0  0  0  0  0  0  0  0  0  0  0  0
  -30.4947  -11.9757  136.4380 C   0  0  0  0  0  0  0  0  0  0  0  0
  -31.4166  -11.3065  137.2383 C   0  0  0  0  0  0  0  0  0  0  0  0
  -31.0197  -10.7163  138.4442 C   0  0  0  0  0  0  0  0  0  0  0  0
  -29.6706  -10.8018  138.8481 C   0  0  0  0  0  0  0  0  0  0  0  0
  -26.7068  -11.8746  138.2700 H   0  0  0  0  0  0  0  0  0  0  0  0
  -29.4674   -9.5208  141.1176 C   0  0  0  0  0  0  0  0  0  0  0  0
  -29.7388   -8.0742  140.6949 C   0  0  0  0  0  0  0  0  0  0  0  0
  -29.7519   -7.1206  141.8822 N   0  0  0  0  0  0  0  0  0  0  0  0
  -30.7236   -7.5869  142.9379 C   0  0  0  0  0  0  0  0  0  0  0  0
  -28.8241   -7.2070  142.3189 H   0  0  0  0  0  0  0  0  0  0  0  0
  -29.2855   -4.7422  142.6012 C   0  0  0  0  0  0  0  0  0  0  0  0
  -29.9041   -5.6502  141.5550 C   0  0  0  0  0  0  0  0  0  0  0  0
 16 17  1  0
 17 13  1  0
 13 14  1  0
 13 12  1  0
 12 11  1  0
 11  1  1  0
  1  2  2  0
  2  3  1  0
  3  4  1  0
  4  5  2  0
  5  6  1  0
  6  7  2  0
  7  8  1  0
  8  9  2  0
  9  1  1  0
  9  4  1  0
 13 15  1  0
  3 10  1  0
M  CHG 1  13   1
M  END
> <minimizedAffinity>
-7.32395

> <CNNscore>
0.5127875805

> <CNNaffinity>
4.9954943657

> <CNN_VS>
2.5616273880

> <CNNaffinity_variance>
0.0393273719

$$$$
MET_like


 17 18  0  0  0  0  0  0  0  0999 V2000
  -27.2368  -15.5228  145.0493 C   0  0  0  0  0  0  0  0  0  0  0  0
  -28.0902  -16.4272  145.6504 C   0  0  0  0  0  0  0  0  0  0  0  0
  -27.4017  -17.5929  145.8634 N   0  0  0  0  0  0  0  0  0  0  0  0
  -26.1056  -17.4635  145.4235 C   0  0  0  0  0  0  0  0  0  0  0  0
  -25.0537  -18.3864  145.4476 C   0  0  0  0  0  0  0  0  0  0  0  0
  -23.8270  -17.9851  144.9127 C   0  0  0  0  0  0  0  0  0  0  0  0
  -23.6627  -16.7125  144.3727 C   0  0  0  0  0  0  0  0  0  0  0  0
  -24.7252  -15.8010  144.3566 C   0  0  0  0  0  0  0  0  0  0  0  0
  -25.9730  -16.1796  144.8951 C   0  0  0  0  0  0  0  0  0  0  0  0
  -27.7826  -18.4333  146.2791 H   0  0  0  0  0  0  0  0  0  0  0  0
  -27.5695  -14.1245  144.6486 C   0  0  0  0  0  0  0  0  0  0  0  0
  -26.3412  -13.4029  144.0869 C   0  0  0  0  0  0  0  0  0  0  0  0
  -26.6469  -12.6756  142.7842 N   0  0  0  0  0  0  0  0  0  0  0  0
  -27.7016  -11.6170  142.9921 C   0  0  0  0  0  0  0  0  0  0  0  0
  -25.7912  -12.1548  142.5487 H   0  0  0  0  0  0  0  0  0  0  0  0
  -27.4060  -12.7669  140.3745 C   0  0  0  0  0  0  0  0  0  0  0  0
  -26.9256  -13.5513  141.5809 C   0  0  0  0  0  0  0  0  0  0  0  0
 16 17  1  0
 17 13  1  0
 13 14  1  0
 13 12  1  0
 12 11  1  0
 11  1  1  0
  1  2  2  0
  2  3  1  0
  3  4  1  0
  4  5  2  0
  5  6  1  0
  6  7  2  0
  7  8  1  0
  8  9  2  0
  9  1  1  0
  9  4  1  0
 13 15  1  0
  3 10  1  0
M  CHG 1  13   1
M  END
> <minimizedAffinity>
-6.59381

> <CNNscore>
0.4891211987

> <CNNaffinity>
4.3708152771

> <CNN_VS>
2.1378583908

> <CNNaffinity_variance>
1.0636569262

$$$$
MET_like


 17 18  0  0  0  0  0  0  0  0999 V2000
  -25.0386  -14.6539  144.8499 C   0  0  0  0  0  0  0  0  0  0  0  0
  -25.2682  -13.9604  146.0220 C   0  0  0  0  0  0  0  0  0  0  0  0
  -24.9389  -14.7735  147.0749 N   0  0  0  0  0  0  0  0  0  0  0  0
  -24.4841  -15.9856  146.6120 C   0  0  0  0  0  0  0  0  0  0  0  0
  -24.0349  -17.1055  147.3211 C   0  0  0  0  0  0  0  0  0  0  0  0
  -23.6381  -18.2235  146.5832 C   0  0  0  0  0  0  0  0  0  0  0  0
  -23.6927  -18.2202  145.1922 C   0  0  0  0  0  0  0  0  0  0  0  0
  -24.1444  -17.0914  144.4979 C   0  0  0  0  0  0  0  0  0  0  0  0
  -24.5462  -15.9475  145.2192 C   0  0  0  0  0  0  0  0  0  0  0  0
  -25.0185  -14.5295  148.0539 H   0  0  0  0  0  0  0  0  0  0  0  0
  -25.2537  -14.1441  143.4641 C   0  0  0  0  0  0  0  0  0  0  0  0
  -26.7120  -13.7307  143.2469 C   0  0  0  0  0  0  0  0  0  0  0  0
  -26.8649  -12.7422  142.0984 N   0  0  0  0  0  0  0  0  0  0  0  0
  -27.8103  -11.6265  142.4693 C   0  0  0  0  0  0  0  0  0  0  0  0
  -25.9466  -12.2890  141.9970 H   0  0  0  0  0  0  0  0  0  0  0  0
  -27.4650  -12.2915  139.6843 C   0  0  0  0  0  0  0  0  0  0  0  0
  -27.1680  -13.3393  140.7404 C   0  0  0  0  0  0  0  0  0  0  0  0
 16 17  1  0
 17 13  1  0
 13 14  1  0
 13 12  1  0
 12 11  1  0
 11  1  1  0
  1  2  2  0
  2  3  1  0
  3  4  1  0
  4  5  2  0
  5  6  1  0
  6  7  2  0
  7  8  1  0
  8  9  2  0
  9  1  1  0
  9  4  1  0
 13 15  1  0
  3 10  1  0
M  CHG 1  13   1
M  END
> <minimizedAffinity>
-6.65183

> <CNNscore>
0.4864722192

> <CNNaffinity>
4.9764060974

> <CNN_VS>
2.4208834171

> <CNNaffinity_variance>
0.2502016723

$$$$
MET_like


 17 18  0  0  0  0  0  0  0  0999 V2000
  -28.6708  -10.8858  140.2568 C   0  0  0  0  0  0  0  0  0  0  0  0
  -27.6840  -11.8492  140.3305 C   0  0  0  0  0  0  0  0  0  0  0  0
  -27.3758  -12.0500  141.6507 N   0  0  0  0  0  0  0  0  0  0  0  0
  -28.1544  -11.2426  142.4458 C   0  0  0  0  0  0  0  0  0  0  0  0
  -28.1881  -11.1203  143.8397 C   0  0  0  0  0  0  0  0  0  0  0  0
  -29.0824  -10.1974  144.3878 C   0  0  0  0  0  0  0  0  0  0  0  0
  -29.9062   -9.4265  143.5722 C   0  0  0  0  0  0  0  0  0  0  0  0
  -29.8602   -9.5613  142.1794 C   0  0  0  0  0  0  0  0  0  0  0  0
  -28.9694  -10.4898  141.6009 C   0  0  0  0  0  0  0  0  0  0  0  0
  -26.6766  -12.6927  142.0003 H   0  0  0  0  0  0  0  0  0  0  0  0
  -29.3093  -10.3671  139.0119 C   0  0  0  0  0  0  0  0  0  0  0  0
  -30.6098  -11.1150  138.7043 C   0  0  0  0  0  0  0  0  0  0  0  0
  -30.4075  -12.2238  137.6801 N   0  0  0  0  0  0  0  0  0  0  0  0
  -29.2650  -11.8974  136.7504 C   0  0  0  0  0  0  0  0  0  0  0  0
  -30.0881  -13.0425  138.2156 H   0  0  0  0  0  0  0  0  0  0  0  0
  -31.8769  -11.9425  135.6423 C   0  0  0  0  0  0  0  0  0  0  0  0
  -31.6472  -12.6864  136.9443 C   0  0  0  0  0  0  0  0  0  0  0  0
 16 17  1  0
 17 13  1  0
 13 14  1  0
 13 12  1  0
 12 11  1  0
 11  1  1  0
  1  2  2  0
  2  3  1  0
  3  4  1  0
  4  5  2  0
  5  6  1  0
  6  7  2  0
  7  8  1  0
  8  9  2  0
  9  1  1  0
  9  4  1  0
 13 15  1  0
  3 10  1  0
M  CHG 1  13   1
M  END
> <minimizedAffinity>
-6.64237

> <CNNscore>
0.4820527434

> <CNNaffinity>
5.5131840706

> <CNN_VS>
2.6576454639

> <CNNaffinity_variance>
0.1080324873

$$$$
MET_like


 17 18  0  0  0  0  0  0  0  0999 V2000
  -30.1853  -10.6141  139.5768 C   0  0  0  0  0  0  0  0  0  0  0  0
  -28.9412  -11.1562  139.8338 C   0  0  0  0  0  0  0  0  0  0  0  0
  -28.6103  -10.8774  141.1342 N   0  0  0  0  0  0  0  0  0  0  0  0
  -29.6236  -10.1720  141.7390 C   0  0  0  0  0  0  0  0  0  0  0  0
  -29.7222   -9.6878  143.0485 C   0  0  0  0  0  0  0  0  0  0  0  0
  -30.8776   -8.9821  143.3933 C   0  0  0  0  0  0  0  0  0  0  0  0
  -31.8906   -8.7674  142.4629 C   0  0  0  0  0  0  0  0  0  0  0  0
  -31.7764   -9.2588  141.1568 C   0  0  0  0  0  0  0  0  0  0  0  0
  -30.6220   -9.9792  140.7845 C   0  0  0  0  0  0  0  0  0  0  0  0
  -27.7475  -11.1434  141.5916 H   0  0  0  0  0  0  0  0  0  0  0  0
  -30.9330  -10.6881  138.2877 C   0  0  0  0  0  0  0  0  0  0  0  0
  -31.0790  -12.1374  137.8153 C   0  0  0  0  0  0  0  0  0  0  0  0
  -30.5175  -12.3454  136.4150 N   0  0  0  0  0  0  0  0  0  0  0  0
  -29.0821  -11.8876  136.3359 C   0  0  0  0  0  0  0  0  0  0  0  0
  -30.4786  -13.3648  136.2792 H   0  0  0  0  0  0  0  0  0  0  0  0
  -32.8161  -12.2467  135.3672 C   0  0  0  0  0  0  0  0  0  0  0  0
  -31.3626  -11.8223  135.2729 C   0  0  0  0  0  0  0  0  0  0  0  0
 16 17  1  0
 17 13  1  0
 13 14  1  0
 13 12  1  0
 12 11  1  0
 11  1  1  0
  1  2  2  0
  2  3  1  0
  3  4  1  0
  4  5  2  0
  5  6  1  0
  6  7  2  0
  7  8  1  0
  8  9  2  0
  9  1  1  0
  9  4  1  0
 13 15  1  0
  3 10  1  0
M  CHG 1  13   1
M  END
> <minimizedAffinity>
-6.45878

> <CNNscore>
0.4808862507

> <CNNaffinity>
5.7513060570

> <CNN_VS>
2.7657239437

> <CNNaffinity_variance>
0.8730706573

$$$$
MET_like


 17 18  0  0  0  0  0  0  0  0999 V2000
  -27.0942  -15.7733  145.3886 C   0  0  0  0  0  0  0  0  0  0  0  0
  -26.9638  -14.6504  144.5951 C   0  0  0  0  0  0  0  0  0  0  0  0
  -27.8174  -13.6878  145.0676 N   0  0  0  0  0  0  0  0  0  0  0  0
  -28.4966  -14.1568  146.1670 C   0  0  0  0  0  0  0  0  0  0  0  0
  -29.4521  -13.5223  146.9692 C   0  0  0  0  0  0  0  0  0  0  0  0
  -29.9956  -14.2517  148.0296 C   0  0  0  0  0  0  0  0  0  0  0  0
  -29.6003  -15.5640  148.2736 C   0  0  0  0  0  0  0  0  0  0  0  0
  -28.6430  -16.1841  147.4617 C   0  0  0  0  0  0  0  0  0  0  0  0
  -28.0749  -15.4678  146.3873 C   0  0  0  0  0  0  0  0  0  0  0  0
  -27.9408  -12.7650  144.6707 H   0  0  0  0  0  0  0  0  0  0  0  0
  -26.3454  -17.0551  145.2371 C   0  0  0  0  0  0  0  0  0  0  0  0
  -25.2564  -17.1891  146.3053 C   0  0  0  0  0  0  0  0  0  0  0  0
  -23.8766  -17.4016  145.6967 N   0  0  0  0  0  0  0  0  0  0  0  0
  -23.8520  -16.9690  144.2515 C   0  0  0  0  0  0  0  0  0  0  0  0
  -23.2537  -16.7415  146.1818 H   0  0  0  0  0  0  0  0  0  0  0  0
  -24.0557  -19.8874  145.2728 C   0  0  0  0  0  0  0  0  0  0  0  0
  -23.2566  -18.7663  145.9099 C   0  0  0  0  0  0  0  0  0  0  0  0
 16 17  1  0
 17 13  1  0
 13 14  1  0
 13 12  1  0
 12 11  1  0
 11  1  1  0
  1  2  2  0
  2  3  1  0
  3  4  1  0
  4  5  2  0
  5  6  1  0
  6  7  2  0
  7  8  1  0
  8  9  2  0
  9  1  1  0
  9  4  1  0
 13 15  1  0
  3 10  1  0
M  CHG 1  13   1
M  END
> <minimizedAffinity>
-6.34708

> <CNNscore>
0.4774513841

> <CNNaffinity>
4.2537994385

> <CNN_VS>
2.0309824944

> <CNNaffinity_variance>
0.8401187062

$$$$
MET_like


 17 18  0  0  0  0  0  0  0  0999 V2000
  -29.5058  -10.4483  140.2214 C   0  0  0  0  0  0  0  0  0  0  0  0
  -30.7820  -10.0390  140.5552 C   0  0  0  0  0  0  0  0  0  0  0  0
  -31.6147  -10.3262  139.5052 N   0  0  0  0  0  0  0  0  0  0  0  0
  -30.9075  -10.9297  138.4924 C   0  0  0  0  0  0  0  0  0  0  0  0
  -31.3450  -11.3980  137.2481 C   0  0  0  0  0  0  0  0  0  0  0  0
  -30.3926  -11.9646  136.3974 C   0  0  0  0  0  0  0  0  0  0  0  0
  -29.0562  -12.0548  136.7769 C   0  0  0  0  0  0  0  0  0  0  0  0
  -28.6350  -11.5817  138.0255 C   0  0  0  0  0  0  0  0  0  0  0  0
  -29.5778  -11.0097  138.9054 C   0  0  0  0  0  0  0  0  0  0  0  0
  -32.6058  -10.1245  139.4683 H   0  0  0  0  0  0  0  0  0  0  0  0
  -28.2886  -10.3352  141.0771 C   0  0  0  0  0  0  0  0  0  0  0  0
  -28.3663  -11.2827  142.2776 C   0  0  0  0  0  0  0  0  0  0  0  0
  -27.1452  -12.1873  142.3765 N   0  0  0  0  0  0  0  0  0  0  0  0
  -27.1372  -13.2062  141.2639 C   0  0  0  0  0  0  0  0  0  0  0  0
  -26.3344  -11.5823  142.1879 H   0  0  0  0  0  0  0  0  0  0  0  0
  -26.6657  -14.3022  143.6760 C   0  0  0  0  0  0  0  0  0  0  0  0
  -26.8782  -12.8012  143.7345 C   0  0  0  0  0  0  0  0  0  0  0  0
 16 17  1  0
 17 13  1  0
 13 14  1  0
 13 12  1  0
 12 11  1  0
 11  1  1  0
  1  2  2  0
  2  3  1  0
  3  4  1  0
  4  5  2  0
  5  6  1  0
  6  7  2  0
  7  8  1  0
  8  9  2  0
  9  1  1  0
  9  4  1  0
 13 15  1  0
  3 10  1  0
M  CHG 1  13   1
M  END
> <minimizedAffinity>
-6.99065

> <CNNscore>
0.4727694392

> <CNNaffinity>
4.7807559967

> <CNN_VS>
2.2601952553

> <CNNaffinity_variance>
0.3714837134

$$$$
MET_like


 17 18  0  0  0  0  0  0  0  0999 V2000
  -28.3111  -10.9674  141.7926 C   0  0  0  0  0  0  0  0  0  0  0  0
  -27.7082  -11.6681  140.7664 C   0  0  0  0  0  0  0  0  0  0  0  0
  -28.4972  -11.5620  139.6508 N   0  0  0  0  0  0  0  0  0  0  0  0
  -29.6022  -10.7914  139.9250 C   0  0  0  0  0  0  0  0  0  0  0  0
  -30.6616  -10.4136  139.0919 C   0  0  0  0  0  0  0  0  0  0  0  0
  -31.6728   -9.6250  139.6465 C   0  0  0  0  0  0  0  0  0  0  0  0
  -31.6257   -9.2343  140.9819 C   0  0  0  0  0  0  0  0  0  0  0  0
  -30.5586   -9.6206  141.8018 C   0  0  0  0  0  0  0  0  0  0  0  0
  -29.5220  -10.4128  141.2649 C   0  0  0  0  0  0  0  0  0  0  0  0
  -28.3062  -11.9876  138.7527 H   0  0  0  0  0  0  0  0  0  0  0  0
  -27.7904  -10.8113  143.1822 C   0  0  0  0  0  0  0  0  0  0  0  0
  -27.5090  -12.1730  143.8236 C   0  0  0  0  0  0  0  0  0  0  0  0
  -26.0294  -12.5320  143.7858 N   0  0  0  0  0  0  0  0  0  0  0  0
  -25.8346  -13.9759  143.3940 C   0  0  0  0  0  0  0  0  0  0  0  0
  -25.6311  -11.9898  143.0071 H   0  0  0  0  0  0  0  0  0  0  0  0
  -23.7564  -12.5364  144.8923 C   0  0  0  0  0  0  0  0  0  0  0  0
  -25.2168  -12.1407  145.0019 C   0  0  0  0  0  0  0  0  0  0  0  0
 16 17  1  0
 17 13  1  0
 13 14  1  0
 13 12  1  0
 12 11  1  0
 11  1  1  0
  1  2  2  0
  2  3  1  0
  3  4  1  0
  4  5  2  0
  5  6  1  0
  6  7  2  0
  7  8  1  0
  8  9  2  0
  9  1  1  0
  9  4  1  0
 13 15  1  0
  3 10  1  0
M  CHG 1  13   1
M  END
> <minimizedAffinity>
-6.37256

> <CNNscore>
0.4604275227

> <CNNaffinity>
4.7242445946

> <CNN_VS>
2.1751723289

> <CNNaffinity_variance>
0.1949860007

$$$$
MET_like


 17 18  0  0  0  0  0  0  0  0999 V2000
  -31.1931   -9.6259  140.0087 C   0  0  0  0  0  0  0  0  0  0  0  0
  -32.1604   -8.6445  140.1018 C   0  0  0  0  0  0  0  0  0  0  0  0
  -32.1482   -8.1476  141.3789 N   0  0  0  0  0  0  0  0  0  0  0  0
  -31.1788   -8.7784  142.1223 C   0  0  0  0  0  0  0  0  0  0  0  0
  -30.8078   -8.5890  143.4585 C   0  0  0  0  0  0  0  0  0  0  0  0
  -29.7821   -9.3903  143.9662 C   0  0  0  0  0  0  0  0  0  0  0  0
  -29.1567  -10.3445  143.1685 C   0  0  0  0  0  0  0  0  0  0  0  0
  -29.5396  -10.5212  141.8334 C   0  0  0  0  0  0  0  0  0  0  0  0
  -30.5693   -9.7212  141.2948 C   0  0  0  0  0  0  0  0  0  0  0  0
  -32.7610   -7.4251  141.7348 H   0  0  0  0  0  0  0  0  0  0  0  0
  -30.8577  -10.4247  138.7938 C   0  0  0  0  0  0  0  0  0  0  0  0
  -29.7986  -11.4862  139.1047 C   0  0  0  0  0  0  0  0  0  0  0  0
  -28.6266  -11.4312  138.1338 N   0  0  0  0  0  0  0  0  0  0  0  0
  -29.0349  -11.9222  136.7669 C   0  0  0  0  0  0  0  0  0  0  0  0
  -28.4182  -10.4317  138.0052 H   0  0  0  0  0  0  0  0  0  0  0  0
  -27.4730  -12.7591  139.9496 C   0  0  0  0  0  0  0  0  0  0  0  0
  -27.3317  -12.0506  138.6156 C   0  0  0  0  0  0  0  0  0  0  0  0
 16 17  1  0
 17 13  1  0
 13 14  1  0
 13 12  1  0
 12 11  1  0
 11  1  1  0
  1  2  2  0
  2  3  1  0
  3  4  1  0
  4  5  2  0
  5  6  1  0
  6  7  2  0
  7  8  1  0
  8  9  2  0
  9  1  1  0
  9  4  1  0
 13 15  1  0
  3 10  1  0
M  CHG 1  13   1
M  END
> <minimizedAffinity>
-6.68978

> <CNNscore>
0.4422092736

> <CNNaffinity>
5.3739256859

> <CNN_VS>
2.3763997555

> <CNNaffinity_variance>
0.0265266094

$$$$
MET_like


 17 18  0  0  0  0  0  0  0  0999 V2000
  -25.7946  -14.1500  143.8512 C   0  0  0  0  0  0  0  0  0  0  0  0
  -24.4498  -14.0340  143.5585 C   0  0  0  0  0  0  0  0  0  0  0  0
  -23.8229  -15.1882  143.9496 N   0  0  0  0  0  0  0  0  0  0  0  0
  -24.7374  -16.0655  144.4826 C   0  0  0  0  0  0  0  0  0  0  0  0
  -24.5504  -17.3538  144.9969 C   0  0  0  0  0  0  0  0  0  0  0  0
  -25.6722  -18.0228  145.4928 C   0  0  0  0  0  0  0  0  0  0  0  0
  -26.9288  -17.4238  145.4771 C   0  0  0  0  0  0  0  0  0  0  0  0
  -27.0988  -16.1343  144.9588 C   0  0  0  0  0  0  0  0  0  0  0  0
  -25.9829  -15.4391  144.4471 C   0  0  0  0  0  0  0  0  0  0  0  0
  -22.8319  -15.3764  143.8667 H   0  0  0  0  0  0  0  0  0  0  0  0
  -26.8490  -13.1282  143.5852 C   0  0  0  0  0  0  0  0  0  0  0  0
  -27.0953  -12.9659  142.0825 C   0  0  0  0  0  0  0  0  0  0  0  0
  -27.4692  -11.5368  141.7118 N   0  0  0  0  0  0  0  0  0  0  0  0
  -28.5622  -11.0146  142.6111 C   0  0  0  0  0  0  0  0  0  0  0  0
  -26.6438  -10.9654  141.9383 H   0  0  0  0  0  0  0  0  0  0  0  0
  -27.2361  -12.3861  139.3421 C   0  0  0  0  0  0  0  0  0  0  0  0
  -27.7439  -11.2782  140.2455 C   0  0  0  0  0  0  0  0  0  0  0  0
 16 17  1  0
 17 13  1  0
 13 14  1  0
 13 12  1  0
 12 11  1  0
 11  1  1  0
  1  2  2  0
  2  3  1  0
  3  4  1  0
  4  5  2  0
  5  6  1  0
  6  7  2  0
  7  8  1  0
  8  9  2  0
  9  1  1  0
  9  4  1  0
 13 15  1  0
  3 10  1  0
M  CHG 1  13   1
M  END
> <minimizedAffinity>
-6.33668

> <CNNscore>
0.4353318214

> <CNNaffinity>
4.4501929283

> <CNN_VS>
1.9373105764

> <CNNaffinity_variance>
0.3398539722

$$$$
MET_like


 16 17  0  0  0  0  0  0  0  0999 V2000
  -29.2518  -10.6735  140.0454 C   0  0  0  0  0  0  0  0  0  0  0  0
  -27.8857  -10.8748  139.9982 C   0  0  0  0  0  0  0  0  0  0  0  0
  -27.5690  -11.3897  138.7701 N   0  0  0  0  0  0  0  0  0  0  0  0
  -28.7034  -11.5342  138.0067 C   0  0  0  0  0  0  0  0  0  0  0  0
  -28.8576  -12.0185  136.7020 C   0  0  0  0  0  0  0  0  0  0  0  0
  -30.1505  -12.0507  136.1715 C   0  0  0  0  0  0  0  0  0  0  0  0
  -31.2430  -11.6152  136.9174 C   0  0  0  0  0  0  0  0  0  0  0  0
  -31.0704  -11.1336  138.2202 C   0  0  0  0  0  0  0  0  0  0  0  0
  -29.7766  -11.0905  138.7796 C   0  0  0  0  0  0  0  0  0  0  0  0
  -26.6378  -11.6308  138.4614 H   0  0  0  0  0  0  0  0  0  0  0  0
  -30.0312  -10.1241  141.2025 C   0  0  0  0  0  0  0  0  0  0  0  0
  -30.7425   -8.8062  140.8472 C   0  0  0  0  0  0  0  0  0  0  0  0
  -31.3213   -8.0982  142.0052 N   0  0  0  0  0  0  0  0  0  0  0  0
  -30.9305   -8.7602  143.2507 C   0  0  0  0  0  0  0  0  0  0  0  0
  -30.2326   -6.0814  140.8889 C   0  0  0  0  0  0  0  0  0  0  0  0
  -31.0468   -6.6551  142.0450 C   0  0  0  0  0  0  0  0  0  0  0  0
 15 16  1  0
 16 13  1  0
 13 14  1  0
 13 12  1  0
 12 11  1  0
 11  1  1  0
  1  2  2  0
  2  3  1  0
  3  4  1  0
  4  5  2  0
  5  6  1  0
  6  7  2  0
  7  8  1  0
  8  9  2  0
  9  1  1  0
  9  4  1  0
  3 10  1  0
M  END
> <minimizedAffinity>
-7.20006

> <CNNscore>
0.7520968318

> <CNNaffinity>
5.1168112755

> <CNN_VS>
3.8483376503

> <CNNaffinity_variance>
0.0271407738

$$$$
MET_like


 16 17  0  0  0  0  0  0  0  0999 V2000
  -30.2911  -10.3753  139.9594 C   0  0  0  0  0  0  0  0  0  0  0  0
  -31.4891   -9.7774  139.6182 C   0  0  0  0  0  0  0  0  0  0  0  0
  -31.9800   -9.1361  140.7234 N   0  0  0  0  0  0  0  0  0  0  0  0
  -31.1276   -9.3027  141.7892 C   0  0  0  0  0  0  0  0  0  0  0  0
  -31.2237   -8.8310  143.1041 C   0  0  0  0  0  0  0  0  0  0  0  0
  -30.1915   -9.1601  143.9875 C   0  0  0  0  0  0  0  0  0  0  0  0
  -29.1082   -9.9295  143.5702 C   0  0  0  0  0  0  0  0  0  0  0  0
  -29.0282  -10.3924  142.2518 C   0  0  0  0  0  0  0  0  0  0  0  0
  -30.0561  -10.0749  141.3401 C   0  0  0  0  0  0  0  0  0  0  0  0
  -32.8434   -8.6130  140.7584 H   0  0  0  0  0  0  0  0  0  0  0  0
  -29.4099  -11.1832  139.0546 C   0  0  0  0  0  0  0  0  0  0  0  0
  -30.2192  -12.1479  138.1694 C   0  0  0  0  0  0  0  0  0  0  0  0
  -30.5037  -11.6344  136.8156 N   0  0  0  0  0  0  0  0  0  0  0  0
  -29.3545  -11.8578  135.9372 C   0  0  0  0  0  0  0  0  0  0  0  0
  -31.9043  -11.9563  134.7100 C   0  0  0  0  0  0  0  0  0  0  0  0
  -31.7515  -12.1302  136.2184 C   0  0  0  0  0  0  0  0  0  0  0  0
 15 16  1  0
 16 13  1  0
 13 14  1  0
 13 12  1  0
 12 11  1  0
 11  1  1  0
  1  2  2  0
  2  3  1  0
  3  4  1  0
  4  5  2  0
  5  6  1  0
  6  7  2  0
  7  8  1  0
  8  9  2  0
  9  1  1  0
  9  4  1  0
  3 10  1  0
M  END
> <minimizedAffinity>
-6.72222

> <CNNscore>
0.7088162303

> <CNNaffinity>
5.7122473717

> <CNN_VS>
4.0489335060

> <CNNaffinity_variance>
0.2130143046

$$$$
MET_like


 16 17  0  0  0  0  0  0  0  0999 V2000
  -30.1374   -6.2490  141.9542 C   0  0  0  0  0  0  0  0  0  0  0  0
  -30.2724   -6.3646  140.5840 C   0  0  0  0  0  0  0  0  0  0  0  0
  -29.8910   -5.1806  140.0128 N   0  0  0  0  0  0  0  0  0  0  0  0
  -29.5090   -4.2843  140.9829 C   0  0  0  0  0  0  0  0  0  0  0  0
  -29.0521   -2.9661  140.8643 C   0  0  0  0  0  0  0  0  0  0  0  0
  -28.7304   -2.2835  142.0411 C   0  0  0  0  0  0  0  0  0  0  0  0
  -28.8609   -2.8969  143.2846 C   0  0  0  0  0  0  0  0  0  0  0  0
  -29.3189   -4.2157  143.3846 C   0  0  0  0  0  0  0  0  0  0  0  0
  -29.6505   -4.9270  142.2130 C   0  0  0  0  0  0  0  0  0  0  0  0
  -29.8875   -4.9859  139.0215 H   0  0  0  0  0  0  0  0  0  0  0  0
  -30.4436   -7.3072  142.9714 C   0  0  0  0  0  0  0  0  0  0  0  0
  -31.3784   -8.3943  142.4115 C   0  0  0  0  0  0  0  0  0  0  0  0
  -30.7002   -9.4085  141.5817 N   0  0  0  0  0  0  0  0  0  0  0  0
  -29.8515  -10.2606  142.4160 C   0  0  0  0  0  0  0  0  0  0  0  0
  -31.3023  -10.1760  139.2264 C   0  0  0  0  0  0  0  0  0  0  0  0
  -31.5931  -10.2003  140.7242 C   0  0  0  0  0  0  0  0  0  0  0  0
 15 16  1  0
 16 13  1  0
 13 14  1  0
 13 12  1  0
 12 11  1  0
 11  1  1  0
  1  2  2  0
  2  3  1  0
  3  4  1  0
  4  5  2  0
  5  6  1  0
  6  7  2  0
  7  8  1  0
  8  9  2  0
  9  1  1  0
  9  4  1  0
  3 10  1  0
M  END
> <minimizedAffinity>
-6.79880

> <CNNscore>
0.6925808191

> <CNNaffinity>
4.9838256836

> <CNN_VS>
3.4517021179

> <CNNaffinity_variance>
0.1542960256

$$$$
MET_like


 16 17  0  0  0  0  0  0  0  0999 V2000
  -29.1526  -10.6762  141.1910 C   0  0  0  0  0  0  0  0  0  0  0  0
  -27.8378  -11.0872  141.2978 C   0  0  0  0  0  0  0  0  0  0  0  0
  -27.4516  -11.6109  140.0936 N   0  0  0  0  0  0  0  0  0  0  0  0
  -28.4901  -11.5551  139.1943 C   0  0  0  0  0  0  0  0  0  0  0  0
  -28.5514  -11.9730  137.8593 C   0  0  0  0  0  0  0  0  0  0  0  0
  -29.7575  -11.7880  137.1772 C   0  0  0  0  0  0  0  0  0  0  0  0
  -30.8560  -11.2080  137.8069 C   0  0  0  0  0  0  0  0  0  0  0  0
  -30.7769  -10.7957  139.1421 C   0  0  0  0  0  0  0  0  0  0  0  0
  -29.5719  -10.9708  139.8534 C   0  0  0  0  0  0  0  0  0  0  0  0
  -26.5365  -11.9859  139.8875 H   0  0  0  0  0  0  0  0  0  0  0  0
  -29.9783  -10.0441  142.2711 C   0  0  0  0  0  0  0  0  0  0  0  0
  -31.3618   -9.6048  141.7593 C   0  0  0  0  0  0  0  0  0  0  0  0
  -31.6166   -8.1555  141.8689 N   0  0  0  0  0  0  0  0  0  0  0  0
  -30.8397   -7.5865  142.9711 C   0  0  0  0  0  0  0  0  0  0  0  0
  -30.2624   -6.4170  140.5873 C   0  0  0  0  0  0  0  0  0  0  0  0
  -31.4283   -7.4009  140.6221 C   0  0  0  0  0  0  0  0  0  0  0  0
 15 16  1  0
 16 13  1  0
 13 14  1  0
 13 12  1  0
 12 11  1  0
 11  1  1  0
  1  2  2  0
  2  3  1  0
  3  4  1  0
  4  5  2  0
  5  6  1  0
  6  7  2  0
  7  8  1  0
  8  9  2  0
  9  1  1  0
  9  4  1  0
  3 10  1  0
M  END
> <minimizedAffinity>
-6.97819

> <CNNscore>
0.6824242473

> <CNNaffinity>
5.1233677864

> <CNN_VS>
3.4963104725

> <CNNaffinity_variance>
0.0744600520

$$$$
MET_like


 16 17  0  0  0  0  0  0  0  0999 V2000
  -28.8410  -10.0596  140.4424 C   0  0  0  0  0  0  0  0  0  0  0  0
  -28.4921  -10.9300  141.4572 C   0  0  0  0  0  0  0  0  0  0  0  0
  -29.0014  -10.4469  142.6323 N   0  0  0  0  0  0  0  0  0  0  0  0
  -29.6784   -9.2709  142.4108 C   0  0  0  0  0  0  0  0  0  0  0  0
  -30.3510   -8.4337  143.3093 C   0  0  0  0  0  0  0  0  0  0  0  0
  -30.9592   -7.2854  142.7937 C   0  0  0  0  0  0  0  0  0  0  0  0
  -30.8961   -6.9891  141.4344 C   0  0  0  0  0  0  0  0  0  0  0  0
  -30.2197   -7.8376  140.5503 C   0  0  0  0  0  0  0  0  0  0  0  0
  -29.5973   -9.0026  141.0442 C   0  0  0  0  0  0  0  0  0  0  0  0
  -28.8992  -10.8861  143.5362 H   0  0  0  0  0  0  0  0  0  0  0  0
  -28.4918  -10.1989  138.9909 C   0  0  0  0  0  0  0  0  0  0  0  0
  -28.5397  -11.6643  138.5225 C   0  0  0  0  0  0  0  0  0  0  0  0
  -29.6753  -11.9804  137.6350 N   0  0  0  0  0  0  0  0  0  0  0  0
  -30.8340  -11.1561  137.9818 C   0  0  0  0  0  0  0  0  0  0  0  0
  -30.5614  -11.9543  135.2448 C   0  0  0  0  0  0  0  0  0  0  0  0
  -29.3709  -11.9170  136.1987 C   0  0  0  0  0  0  0  0  0  0  0  0
 15 16  1  0
 16 13  1  0
 13 14  1  0
 13 12  1  0
 12 11  1  0
 11  1  1  0
  1  2  2  0
  2  3  1  0
  3  4  1  0
  4  5  2  0
  5  6  1  0
  6  7  2  0
  7  8  1  0
  8  9  2  0
  9  1  1  0
  9  4  1  0
  3 10  1  0
M  END
> <minimizedAffinity>
-6.37775

> <CNNscore>
0.6808784008

> <CNNaffinity>
5.4904150963

> <CNN_VS>
3.7383050919

> <CNNaffinity_variance>
0.1956108063

$$$$
MET_like


 16 17  0  0  0  0  0  0  0  0999 V2000
  -28.7383  -10.7621  139.8600 C   0  0  0  0  0  0  0  0  0  0  0  0
  -27.4422  -11.1320  139.5559 C   0  0  0  0  0  0  0  0  0  0  0  0
  -27.4321  -11.6678  138.2964 N   0  0  0  0  0  0  0  0  0  0  0  0
  -28.7000  -11.6603  137.7648 C   0  0  0  0  0  0  0  0  0  0  0  0
  -29.1592  -12.1061  136.5193 C   0  0  0  0  0  0  0  0  0  0  0  0
  -30.5232  -11.9701  136.2451 C   0  0  0  0  0  0  0  0  0  0  0  0
  -31.3905  -11.4104  137.1801 C   0  0  0  0  0  0  0  0  0  0  0  0
  -30.9142  -10.9696  138.4202 C   0  0  0  0  0  0  0  0  0  0  0  0
  -29.5425  -11.0952  138.7224 C   0  0  0  0  0  0  0  0  0  0  0  0
  -26.6143  -12.0197  137.8191 H   0  0  0  0  0  0  0  0  0  0  0  0
  -29.2082  -10.1334  141.1375 C   0  0  0  0  0  0  0  0  0  0  0  0
  -30.0437   -8.8655  140.8851 C   0  0  0  0  0  0  0  0  0  0  0  0
  -30.7046   -8.3253  142.0886 N   0  0  0  0  0  0  0  0  0  0  0  0
  -31.1850   -6.9661  141.8358 C   0  0  0  0  0  0  0  0  0  0  0  0
  -32.5020  -10.0833  141.6669 C   0  0  0  0  0  0  0  0  0  0  0  0
  -31.7595   -9.1815  142.6488 C   0  0  0  0  0  0  0  0  0  0  0  0
 15 16  1  0
 16 13  1  0
 13 14  1  0
 13 12  1  0
 12 11  1  0
 11  1  1  0
  1  2  2  0
  2  3  1  0
  3  4  1  0
  4  5  2  0
  5  6  1  0
  6  7  2  0
  7  8  1  0
  8  9  2  0
  9  1  1  0
  9  4  1  0
  3 10  1  0
M  END
> <minimizedAffinity>
-7.14956

> <CNNscore>
0.6768773198

> <CNNaffinity>
5.2414479256

> <CNN_VS>
3.5478172302

> <CNNaffinity_variance>
0.0052676257

$$$$
MET_like


 16 17  0  0  0  0  0  0  0  0999 V2000
  -31.6003   -9.8124  140.1097 C   0  0  0  0  0  0  0  0  0  0  0  0
  -32.5111  -10.3885  140.9745 C   0  0  0  0  0  0  0  0  0  0  0  0
  -32.4720   -9.7038  142.1591 N   0  0  0  0  0  0  0  0  0  0  0  0
  -31.5488   -8.6871  142.0919 C   0  0  0  0  0  0  0  0  0  0  0  0
  -31.1746   -7.7427  143.0556 C   0  0  0  0  0  0  0  0  0  0  0  0
  -30.1934   -6.8114  142.7033 C   0  0  0  0  0  0  0  0  0  0  0  0
  -29.6120   -6.8260  141.4379 C   0  0  0  0  0  0  0  0  0  0  0  0
  -29.9985   -7.7771  140.4865 C   0  0  0  0  0  0  0  0  0  0  0  0
  -30.9861   -8.7282  140.8161 C   0  0  0  0  0  0  0  0  0  0  0  0
  -33.0375   -9.9096  142.9704 H   0  0  0  0  0  0  0  0  0  0  0  0
  -31.3130  -10.2436  138.7027 C   0  0  0  0  0  0  0  0  0  0  0  0
  -30.4043  -11.4850  138.6524 C   0  0  0  0  0  0  0  0  0  0  0  0
  -29.2588  -11.3609  137.7307 N   0  0  0  0  0  0  0  0  0  0  0  0
  -28.0587  -11.9436  138.3327 C   0  0  0  0  0  0  0  0  0  0  0  0
  -30.9486  -12.1693  136.0015 C   0  0  0  0  0  0  0  0  0  0  0  0
  -29.4979  -11.8813  136.3773 C   0  0  0  0  0  0  0  0  0  0  0  0
 15 16  1  0
 16 13  1  0
 13 14  1  0
 13 12  1  0
 12 11  1  0
 11  1  1  0
  1  2  2  0
  2  3  1  0
  3  4  1  0
  4  5  2  0
  5  6  1  0
  6  7  2  0
  7  8  1  0
  8  9  2  0
  9  1  1  0
  9  4  1  0
  3 10  1  0
M  END
> <minimizedAffinity>
-6.80274

> <CNNscore>
0.6735984087

> <CNNaffinity>
5.3202362061

> <CNN_VS>
3.5837025642

> <CNNaffinity_variance>
0.0251716804

$$$$
MET_like


 16 17  0  0  0  0  0  0  0  0999 V2000
  -29.9688   -6.2280  141.4189 C   0  0  0  0  0  0  0  0  0  0  0  0
  -30.1944   -6.5917  142.7326 C   0  0  0  0  0  0  0  0  0  0  0  0
  -29.9079   -5.5178  143.5316 N   0  0  0  0  0  0  0  0  0  0  0  0
  -29.4944   -4.4520  142.7676 C   0  0  0  0  0  0  0  0  0  0  0  0
  -29.1012   -3.1644  143.1525 C   0  0  0  0  0  0  0  0  0  0  0  0
  -28.7262   -2.2728  142.1432 C   0  0  0  0  0  0  0  0  0  0  0  0
  -28.7448   -2.6558  140.8044 C   0  0  0  0  0  0  0  0  0  0  0  0
  -29.1411   -3.9471  140.4376 C   0  0  0  0  0  0  0  0  0  0  0  0
  -29.5243   -4.8664  141.4359 C   0  0  0  0  0  0  0  0  0  0  0  0
  -29.9871   -5.5027  144.5385 H   0  0  0  0  0  0  0  0  0  0  0  0
  -30.1545   -7.0959  140.2104 C   0  0  0  0  0  0  0  0  0  0  0  0
  -29.4977   -8.4770  140.3839 C   0  0  0  0  0  0  0  0  0  0  0  0
  -30.4079   -9.6148  140.1513 N   0  0  0  0  0  0  0  0  0  0  0  0
  -31.7693   -9.1337  139.9118 C   0  0  0  0  0  0  0  0  0  0  0  0
  -31.0170  -10.9730  138.0817 C   0  0  0  0  0  0  0  0  0  0  0  0
  -29.9689  -10.5516  139.1077 C   0  0  0  0  0  0  0  0  0  0  0  0
 15 16  1  0
 16 13  1  0
 13 14  1  0
 13 12  1  0
 12 11  1  0
 11  1  1  0
  1  2  2  0
  2  3  1  0
  3  4  1  0
  4  5  2  0
  5  6  1  0
  6  7  2  0
  7  8  1  0
  8  9  2  0
  9  1  1  0
  9  4  1  0
  3 10  1  0
M  END
> <minimizedAffinity>
-6.18216

> <CNNscore>
0.6724405885

> <CNNaffinity>
5.0569386482

> <CNN_VS>
3.4004907608

> <CNNaffinity_variance>
0.0248335097

$$$$
MET_like


 16 17  0  0  0  0  0  0  0  0999 V2000
  -30.3958  -10.8178  139.3114 C   0  0  0  0  0  0  0  0  0  0  0  0
  -29.0348  -10.9058  139.5330 C   0  0  0  0  0  0  0  0  0  0  0  0
  -28.4372  -11.3296  138.3767 N   0  0  0  0  0  0  0  0  0  0  0  0
  -29.3810  -11.5253  137.3963 C   0  0  0  0  0  0  0  0  0  0  0  0
  -29.2307  -11.9527  136.0713 C   0  0  0  0  0  0  0  0  0  0  0  0
  -30.3853  -12.0615  135.2908 C   0  0  0  0  0  0  0  0  0  0  0  0
  -31.6380  -11.7544  135.8163 C   0  0  0  0  0  0  0  0  0  0  0  0
  -31.7697  -11.3282  137.1429 C   0  0  0  0  0  0  0  0  0  0  0  0
  -30.6210  -11.2100  137.9522 C   0  0  0  0  0  0  0  0  0  0  0  0
  -27.4457  -11.4787  138.2536 H   0  0  0  0  0  0  0  0  0  0  0  0
  -31.4341  -10.3933  140.3062 C   0  0  0  0  0  0  0  0  0  0  0  0
  -31.7890   -8.9017  140.1710 C   0  0  0  0  0  0  0  0  0  0  0  0
  -32.1373   -8.2434  141.4448 N   0  0  0  0  0  0  0  0  0  0  0  0
  -31.9914   -9.1834  142.5572 C   0  0  0  0  0  0  0  0  0  0  0  0
  -30.3960   -6.5546  140.6609 C   0  0  0  0  0  0  0  0  0  0  0  0
  -31.4286   -6.9817  141.7001 C   0  0  0  0  0  0  0  0  0  0  0  0
 15 16  1  0
 16 13  1  0
 13 14  1  0
 13 12  1  0
 12 11  1  0
 11  1  1  0
  1  2  2  0
  2  3  1  0
  3  4  1  0
  4  5  2  0
  5  6  1  0
  6  7  2  0
  7  8  1  0
  8  9  2  0
  9  1  1  0
  9  4  1  0
  3 10  1  0
M  END
> <minimizedAffinity>
-7.62730

> <CNNscore>
0.6598843932

> <CNNaffinity>
5.0793490410

> <CNN_VS>
3.3517832756

> <CNNaffinity_variance>
0.0189824700

$$$$
MET_like


 16 17  0  0  0  0  0  0  0  0999 V2000
  -28.6051  -10.8070  139.9497 C   0  0  0  0  0  0  0  0  0  0  0  0
  -27.3448  -11.2710  139.6246 C   0  0  0  0  0  0  0  0  0  0  0  0
  -27.3945  -11.8048  138.3652 N   0  0  0  0  0  0  0  0  0  0  0  0
  -28.6670  -11.7035  137.8543 C   0  0  0  0  0  0  0  0  0  0  0  0
  -29.1779  -12.1130  136.6166 C   0  0  0  0  0  0  0  0  0  0  0  0
  -30.5325  -11.8768  136.3646 C   0  0  0  0  0  0  0  0  0  0  0  0
  -31.3409  -11.2558  137.3135 C   0  0  0  0  0  0  0  0  0  0  0  0
  -30.8134  -10.8526  138.5456 C   0  0  0  0  0  0  0  0  0  0  0  0
  -29.4499  -11.0790  138.8254 C   0  0  0  0  0  0  0  0  0  0  0  0
  -26.6127  -12.2154  137.8747 H   0  0  0  0  0  0  0  0  0  0  0  0
  -29.0066  -10.1468  141.2346 C   0  0  0  0  0  0  0  0  0  0  0  0
  -30.4713  -10.4426  141.6038 C   0  0  0  0  0  0  0  0  0  0  0  0
  -30.9810   -9.6534  142.7415 N   0  0  0  0  0  0  0  0  0  0  0  0
  -29.8890   -9.3221  143.6580 C   0  0  0  0  0  0  0  0  0  0  0  0
  -31.6772   -8.0249  140.9078 C   0  0  0  0  0  0  0  0  0  0  0  0
  -31.7587   -8.4640  142.3670 C   0  0  0  0  0  0  0  0  0  0  0  0
 15 16  1  0
 16 13  1  0
 13 14  1  0
 13 12  1  0
 12 11  1  0
 11  1  1  0
  1  2  2  0
  2  3  1  0
  3  4  1  0
  4  5  2  0
  5  6  1  0
  6  7  2  0
  7  8  1  0
  8  9  2  0
  9  1  1  0
  9  4  1  0
  3 10  1  0
M  END
> <minimizedAffinity>
-7.20972

> <CNNscore>
0.6396257281

> <CNNaffinity>
5.0525035858

> <CNN_VS>
3.2317113876

> <CNNaffinity_variance>
0.0498538464

$$$$
MET_like


 16 17  0  0  0  0  0  0  0  0999 V2000
  -28.8415  -10.7050  140.4270 C   0  0  0  0  0  0  0  0  0  0  0  0
  -27.7975  -11.6036  140.5350 C   0  0  0  0  0  0  0  0  0  0  0  0
  -27.5177  -11.7802  141.8633 N   0  0  0  0  0  0  0  0  0  0  0  0
  -28.3576  -11.0112  142.6338 C   0  0  0  0  0  0  0  0  0  0  0  0
  -28.4325  -10.8736  144.0252 C   0  0  0  0  0  0  0  0  0  0  0  0
  -29.4016  -10.0072  144.5393 C   0  0  0  0  0  0  0  0  0  0  0  0
  -30.2600   -9.3084  143.6940 C   0  0  0  0  0  0  0  0  0  0  0  0
  -30.1713   -9.4584  142.3052 C   0  0  0  0  0  0  0  0  0  0  0  0
  -29.2023  -10.3260  141.7603 C   0  0  0  0  0  0  0  0  0  0  0  0
  -26.7992  -12.3870  142.2321 H   0  0  0  0  0  0  0  0  0  0  0  0
  -29.4721  -10.2218  139.1553 C   0  0  0  0  0  0  0  0  0  0  0  0
  -30.5365  -11.2011  138.6290 C   0  0  0  0  0  0  0  0  0  0  0  0
  -30.4181  -11.5099  137.1910 N   0  0  0  0  0  0  0  0  0  0  0  0
  -29.0666  -11.9803  136.8835 C   0  0  0  0  0  0  0  0  0  0  0  0
  -32.2527  -11.9324  135.4720 C   0  0  0  0  0  0  0  0  0  0  0  0
  -31.4452  -12.4229  136.6704 C   0  0  0  0  0  0  0  0  0  0  0  0
 15 16  1  0
 16 13  1  0
 13 14  1  0
 13 12  1  0
 12 11  1  0
 11  1  1  0
  1  2  2  0
  2  3  1  0
  3  4  1  0
  4  5  2  0
  5  6  1  0
  6  7  2  0
  7  8  1  0
  8  9  2  0
  9  1  1  0
  9  4  1  0
  3 10  1  0
M  END
> <minimizedAffinity>
-6.63802

> <CNNscore>
0.6357678175

> <CNNaffinity>
5.3799586296

> <CNN_VS>
3.4204046726

> <CNNaffinity_variance>
0.3740362227

$$$$
MET_like


 16 17  0  0  0  0  0  0  0  0999 V2000
  -30.3429  -10.0265  140.2696 C   0  0  0  0  0  0  0  0  0  0  0  0
  -29.0627  -10.1757  140.7675 C   0  0  0  0  0  0  0  0  0  0  0  0
  -28.3239  -10.8754  139.8520 N   0  0  0  0  0  0  0  0  0  0  0  0
  -29.0956  -11.1931  138.7593 C   0  0  0  0  0  0  0  0  0  0  0  0
  -28.7645  -11.8954  137.5940 C   0  0  0  0  0  0  0  0  0  0  0  0
  -29.7673  -12.0701  136.6358 C   0  0  0  0  0  0  0  0  0  0  0  0
  -31.0482  -11.5618  136.8372 C   0  0  0  0  0  0  0  0  0  0  0  0
  -31.3615  -10.8618  138.0080 C   0  0  0  0  0  0  0  0  0  0  0  0
  -30.3685  -10.6715  138.9909 C   0  0  0  0  0  0  0  0  0  0  0  0
  -27.3509  -11.1257  139.9568 H   0  0  0  0  0  0  0  0  0  0  0  0
  -31.4837   -9.3240  140.9429 C   0  0  0  0  0  0  0  0  0  0  0  0
  -31.6178   -7.8626  140.4788 C   0  0  0  0  0  0  0  0  0  0  0  0
  -31.2382   -6.8655  141.4980 N   0  0  0  0  0  0  0  0  0  0  0  0
  -30.9994   -7.5216  142.7843 C   0  0  0  0  0  0  0  0  0  0  0  0
  -29.3739   -5.2999  142.2545 C   0  0  0  0  0  0  0  0  0  0  0  0
  -30.1217   -5.9894  141.1169 C   0  0  0  0  0  0  0  0  0  0  0  0
 15 16  1  0
 16 13  1  0
 13 14  1  0
 13 12  1  0
 12 11  1  0
 11  1  1  0
  1  2  2  0
  2  3  1  0
  3  4  1  0
  4  5  2  0
  5  6  1  0
  6  7  2  0
  7  8  1  0
  8  9  2  0
  9  1  1  0
  9  4  1  0
  3 10  1  0
M  END
> <minimizedAffinity>
-7.38725

> <CNNscore>
0.6216552854

> <CNNaffinity>
4.7143301964

> <CNN_VS>
2.9306883812

> <CNNaffinity_variance>
0.1879251748

$$$$
MET_like


 16 17  0  0  0  0  0  0  0  0999 V2000
  -27.3761  -15.5689  145.0179 C   0  0  0  0  0  0  0  0  0  0  0  0
  -26.9722  -16.8680  145.2596 C   0  0  0  0  0  0  0  0  0  0  0  0
  -27.5712  -17.2971  146.4131 N   0  0  0  0  0  0  0  0  0  0  0  0
  -28.3617  -16.3024  146.9385 C   0  0  0  0  0  0  0  0  0  0  0  0
  -29.1509  -16.2929  148.0951 C   0  0  0  0  0  0  0  0  0  0  0  0
  -29.8597  -15.1237  148.3862 C   0  0  0  0  0  0  0  0  0  0  0  0
  -29.7809  -14.0108  147.5527 C   0  0  0  0  0  0  0  0  0  0  0  0
  -28.9871  -14.0379  146.4002 C   0  0  0  0  0  0  0  0  0  0  0  0
  -28.2616  -15.2048  146.0832 C   0  0  0  0  0  0  0  0  0  0  0  0
  -27.4546  -18.2120  146.8251 H   0  0  0  0  0  0  0  0  0  0  0  0
  -26.9633  -14.7089  143.8611 C   0  0  0  0  0  0  0  0  0  0  0  0
  -26.1862  -13.4609  144.3166 C   0  0  0  0  0  0  0  0  0  0  0  0
  -24.8306  -13.7432  144.8264 N   0  0  0  0  0  0  0  0  0  0  0  0
  -24.0896  -14.5641  143.8675 C   0  0  0  0  0  0  0  0  0  0  0  0
  -22.7976  -12.2541  144.4410 C   0  0  0  0  0  0  0  0  0  0  0  0
  -24.0660  -12.5562  145.2339 C   0  0  0  0  0  0  0  0  0  0  0  0
 15 16  1  0
 16 13  1  0
 13 14  1  0
 13 12  1  0
 12 11  1  0
 11  1  1  0
  1  2  2  0
  2  3  1  0
  3  4  1  0
  4  5  2  0
  5  6  1  0
  6  7  2  0
  7  8  1  0
  8  9  2  0
  9  1  1  0
  9  4  1  0
  3 10  1  0
M  END
> <minimizedAffinity>
-6.56518

> <CNNscore>
0.5868784189

> <CNNaffinity>
4.2688612938

> <CNN_VS>
2.5053026676

> <CNNaffinity_variance>
0.8614286780

$$$$
MET_like


 16 17  0  0  0  0  0  0  0  0999 V2000
  -30.1714   -6.4033  141.9298 C   0  0  0  0  0  0  0  0  0  0  0  0
  -30.3081   -6.5099  140.5590 C   0  0  0  0  0  0  0  0  0  0  0  0
  -29.9321   -5.3206  139.9955 N   0  0  0  0  0  0  0  0  0  0  0  0
  -29.5519   -4.4297  140.9712 C   0  0  0  0  0  0  0  0  0  0  0  0
  -29.1001   -3.1089  140.8610 C   0  0  0  0  0  0  0  0  0  0  0  0
  -28.7791   -2.4333  142.0420 C   0  0  0  0  0  0  0  0  0  0  0  0
  -28.9054   -3.0557  143.2815 C   0  0  0  0  0  0  0  0  0  0  0  0
  -29.3583   -4.3769  143.3730 C   0  0  0  0  0  0  0  0  0  0  0  0
  -29.6891   -5.0813  142.1970 C   0  0  0  0  0  0  0  0  0  0  0  0
  -29.9308   -5.1191  139.0056 H   0  0  0  0  0  0  0  0  0  0  0  0
  -30.4721   -7.4697  142.9401 C   0  0  0  0  0  0  0  0  0  0  0  0
  -31.6333   -8.3768  142.4953 C   0  0  0  0  0  0  0  0  0  0  0  0
  -31.2725   -9.8011  142.3598 N   0  0  0  0  0  0  0  0  0  0  0  0
  -32.0489  -10.4203  141.2846 C   0  0  0  0  0  0  0  0  0  0  0  0
  -29.3130  -10.2432  140.7901 C   0  0  0  0  0  0  0  0  0  0  0  0
  -29.8336  -10.0607  142.2129 C   0  0  0  0  0  0  0  0  0  0  0  0
 15 16  1  0
 16 13  1  0
 13 14  1  0
 13 12  1  0
 12 11  1  0
 11  1  1  0
  1  2  2  0
  2  3  1  0
  3  4  1  0
  4  5  2  0
  5  6  1  0
  6  7  2  0
  7  8  1  0
  8  9  2  0
  9  1  1  0
  9  4  1  0
  3 10  1  0
M  END
> <minimizedAffinity>
-6.74255

> <CNNscore>
0.5790709257

> <CNNaffinity>
4.9449267387

> <CNN_VS>
2.8634634018

> <CNNaffinity_variance>
0.1621250361

$$$$
MET_like


 16 17  0  0  0  0  0  0  0  0999 V2000
  -30.7451  -11.4199  137.2053 C   0  0  0  0  0  0  0  0  0  0  0  0
  -31.6449  -10.6542  137.9216 C   0  0  0  0  0  0  0  0  0  0  0  0
  -31.0494  -10.2754  139.0944 N   0  0  0  0  0  0  0  0  0  0  0  0
  -29.7725  -10.7803  139.1656 C   0  0  0  0  0  0  0  0  0  0  0  0
  -28.8061  -10.6521  140.1707 C   0  0  0  0  0  0  0  0  0  0  0  0
  -27.5747  -11.2826  139.9697 C   0  0  0  0  0  0  0  0  0  0  0  0
  -27.3226  -12.0107  138.8095 C   0  0  0  0  0  0  0  0  0  0  0  0
  -28.3003  -12.1281  137.8148 C   0  0  0  0  0  0  0  0  0  0  0  0
  -29.5513  -11.5020  137.9925 C   0  0  0  0  0  0  0  0  0  0  0  0
  -31.4796   -9.7061  139.8095 H   0  0  0  0  0  0  0  0  0  0  0  0
  -30.9785  -12.0438  135.8620 C   0  0  0  0  0  0  0  0  0  0  0  0
  -32.4728  -12.2959  135.5931 C   0  0  0  0  0  0  0  0  0  0  0  0
  -33.0063  -11.5818  134.4173 N   0  0  0  0  0  0  0  0  0  0  0  0
  -33.1643  -12.5051  133.2926 C   0  0  0  0  0  0  0  0  0  0  0  0
  -35.3923  -11.0393  133.7020 C   0  0  0  0  0  0  0  0  0  0  0  0
  -34.2329  -10.8124  134.6680 C   0  0  0  0  0  0  0  0  0  0  0  0
 15 16  1  0
 16 13  1  0
 13 14  1  0
 13 12  1  0
 12 11  1  0
 11  1  1  0
  1  2  2  0
  2  3  1  0
  3  4  1  0
  4  5  2  0
  5  6  1  0
  6  7  2  0
  7  8  1  0
  8  9  2  0
  9  1  1  0
  9  4  1  0
  3 10  1  0
M  END
> <minimizedAffinity>
-6.92683

> <CNNscore>
0.5706607103

> <CNNaffinity>
4.9153265953

> <CNN_VS>
2.8049838543

> <CNNaffinity_variance>
0.1830489039

$$$$
MET_like


 16 17  0  0  0  0  0  0  0  0999 V2000
  -31.2504   -9.7349  140.1739 C   0  0  0  0  0  0  0  0  0  0  0  0
  -32.1928   -8.7333  140.3083 C   0  0  0  0  0  0  0  0  0  0  0  0
  -32.1085   -8.2311  141.5789 N   0  0  0  0  0  0  0  0  0  0  0  0
  -31.1282   -8.8860  142.2864 C   0  0  0  0  0  0  0  0  0  0  0  0
  -30.6980   -8.7098  143.6072 C   0  0  0  0  0  0  0  0  0  0  0  0
  -29.6639   -9.5307  144.0667 C   0  0  0  0  0  0  0  0  0  0  0  0
  -29.0852  -10.4878  143.2368 C   0  0  0  0  0  0  0  0  0  0  0  0
  -29.5276  -10.6500  141.9188 C   0  0  0  0  0  0  0  0  0  0  0  0
  -30.5694   -9.8349  141.4301 C   0  0  0  0  0  0  0  0  0  0  0  0
  -32.6805   -7.4860  141.9504 H   0  0  0  0  0  0  0  0  0  0  0  0
  -30.9941  -10.5571  138.9466 C   0  0  0  0  0  0  0  0  0  0  0  0
  -29.5137  -10.5231  138.5264 C   0  0  0  0  0  0  0  0  0  0  0  0
  -28.9707  -11.8312  138.1127 N   0  0  0  0  0  0  0  0  0  0  0  0
  -29.0964  -11.9965  136.6639 C   0  0  0  0  0  0  0  0  0  0  0  0
  -26.8443  -10.9358  139.1971 C   0  0  0  0  0  0  0  0  0  0  0  0
  -27.6035  -12.1051  138.5766 C   0  0  0  0  0  0  0  0  0  0  0  0
 15 16  1  0
 16 13  1  0
 13 14  1  0
 13 12  1  0
 12 11  1  0
 11  1  1  0
  1  2  2  0
  2  3  1  0
  3  4  1  0
  4  5  2  0
  5  6  1  0
  6  7  2  0
  7  8  1  0
  8  9  2  0
  9  1  1  0
  9  4  1  0
  3 10  1  0
M  END
> <minimizedAffinity>
-6.52325

> <CNNscore>
0.5392035842

> <CNNaffinity>
5.3721404076

> <CNN_VS>
2.8966772556

> <CNNaffinity_variance>
0.0081815282

$$$$
MET_like


 16 17  0  0  0  0  0  0  0  0999 V2000
  -30.4645   -8.1605  140.6222 C   0  0  0  0  0  0  0  0  0  0  0  0
  -31.8377   -8.3061  140.6691 C   0  0  0  0  0  0  0  0  0  0  0  0
  -32.1738   -9.4396  139.9793 N   0  0  0  0  0  0  0  0  0  0  0  0
  -31.0460  -10.0434  139.4756 C   0  0  0  0  0  0  0  0  0  0  0  0
  -30.9108  -11.2100  138.7132 C   0  0  0  0  0  0  0  0  0  0  0  0
  -29.6198  -11.5918  138.3364 C   0  0  0  0  0  0  0  0  0  0  0  0
  -28.5109  -10.8358  138.7085 C   0  0  0  0  0  0  0  0  0  0  0  0
  -28.6645   -9.6724  139.4713 C   0  0  0  0  0  0  0  0  0  0  0  0
  -29.9559   -9.2646  139.8647 C   0  0  0  0  0  0  0  0  0  0  0  0
  -33.1134   -9.7890  139.8545 H   0  0  0  0  0  0  0  0  0  0  0  0
  -29.6645   -7.0562  141.2458 C   0  0  0  0  0  0  0  0  0  0  0  0
  -29.9488   -5.6938  140.5886 C   0  0  0  0  0  0  0  0  0  0  0  0
  -29.7370   -4.5356  141.4779 N   0  0  0  0  0  0  0  0  0  0  0  0
  -29.2011   -4.9775  142.7662 C   0  0  0  0  0  0  0  0  0  0  0  0
  -28.0393   -2.6717  141.8557 C   0  0  0  0  0  0  0  0  0  0  0  0
  -28.9341   -3.4510  140.8961 C   0  0  0  0  0  0  0  0  0  0  0  0
 15 16  1  0
 16 13  1  0
 13 14  1  0
 13 12  1  0
 12 11  1  0
 11  1  1  0
  1  2  2  0
  2  3  1  0
  3  4  1  0
  4  5  2  0
  5  6  1  0
  6  7  2  0
  7  8  1  0
  8  9  2  0
  9  1  1  0
  9  4  1  0
  3 10  1  0
M  END
> <minimizedAffinity>
-6.88098

> <CNNscore>
0.5191482306

> <CNNaffinity>
4.6710605621

> <CNN_VS>
2.4249727726

> <CNNaffinity_variance>
0.3086778820

$$$$
MET_like


 16 17  0  0  0  0  0  0  0  0999 V2000
  -28.5966  -15.2916  146.3560 C   0  0  0  0  0  0  0  0  0  0  0  0
  -29.0438  -14.0336  146.0001 C   0  0  0  0  0  0  0  0  0  0  0  0
  -29.9253  -13.6043  146.9553 N   0  0  0  0  0  0  0  0  0  0  0  0
  -30.0696  -14.5588  147.9343 C   0  0  0  0  0  0  0  0  0  0  0  0
  -30.8594  -14.5534  149.0906 C   0  0  0  0  0  0  0  0  0  0  0  0
  -30.8052  -15.6793  149.9174 C   0  0  0  0  0  0  0  0  0  0  0  0
  -29.9931  -16.7649  149.5987 C   0  0  0  0  0  0  0  0  0  0  0  0
  -29.2098  -16.7531  148.4388 C   0  0  0  0  0  0  0  0  0  0  0  0
  -29.2459  -15.6298  147.5872 C   0  0  0  0  0  0  0  0  0  0  0  0
  -30.4044  -12.7150  146.9490 H   0  0  0  0  0  0  0  0  0  0  0  0
  -27.6195  -16.1372  145.5954 C   0  0  0  0  0  0  0  0  0  0  0  0
  -26.1780  -15.6131  145.7245 C   0  0  0  0  0  0  0  0  0  0  0  0
  -25.1411  -16.5891  145.3380 N   0  0  0  0  0  0  0  0  0  0  0  0
  -24.3314  -16.0597  144.2396 C   0  0  0  0  0  0  0  0  0  0  0  0
  -23.3252  -18.1962  146.1244 C   0  0  0  0  0  0  0  0  0  0  0  0
  -24.3069  -17.0732  146.4467 C   0  0  0  0  0  0  0  0  0  0  0  0
 15 16  1  0
 16 13  1  0
 13 14  1  0
 13 12  1  0
 12 11  1  0
 11  1  1  0
  1  2  2  0
  2  3  1  0
  3  4  1  0
  4  5  2  0
  5  6  1  0
  6  7  2  0
  7  8  1  0
  8  9  2  0
  9  1  1  0
  9  4  1  0
  3 10  1  0
M  END
> <minimizedAffinity>
-6.34730

> <CNNscore>
0.5052137375

> <CNNaffinity>
3.9062621593

> <CNN_VS>
1.9734972715

> <CNNaffinity_variance>
1.1014084816

$$$$
MET_like


 16 17  0  0  0  0  0  0  0  0999 V2000
  -25.0391  -16.5588  146.6770 C   0  0  0  0  0  0  0  0  0  0  0  0
  -26.3885  -16.5360  146.9729 C   0  0  0  0  0  0  0  0  0  0  0  0
  -26.5381  -16.7541  148.3159 N   0  0  0  0  0  0  0  0  0  0  0  0
  -25.3103  -16.9232  148.9112 C   0  0  0  0  0  0  0  0  0  0  0  0
  -24.9827  -17.1694  150.2501 C   0  0  0  0  0  0  0  0  0  0  0  0
  -23.6286  -17.2980  150.5727 C   0  0  0  0  0  0  0  0  0  0  0  0
  -22.6442  -17.1843  149.5941 C   0  0  0  0  0  0  0  0  0  0  0  0
  -22.9898  -16.9376  148.2604 C   0  0  0  0  0  0  0  0  0  0  0  0
  -24.3486  -16.8038  147.9078 C   0  0  0  0  0  0  0  0  0  0  0  0
  -27.4206  -16.7869  148.8065 H   0  0  0  0  0  0  0  0  0  0  0  0
  -24.4208  -16.3646  145.3249 C   0  0  0  0  0  0  0  0  0  0  0  0
  -25.4196  -15.7786  144.3110 C   0  0  0  0  0  0  0  0  0  0  0  0
  -25.1653  -14.3696  143.9544 N   0  0  0  0  0  0  0  0  0  0  0  0
  -26.0258  -13.4847  144.7410 C   0  0  0  0  0  0  0  0  0  0  0  0
  -23.4636  -12.6154  144.6797 C   0  0  0  0  0  0  0  0  0  0  0  0
  -23.7552  -13.9616  144.0230 C   0  0  0  0  0  0  0  0  0  0  0  0
 15 16  1  0
 16 13  1  0
 13 14  1  0
 13 12  1  0
 12 11  1  0
 11  1  1  0
  1  2  2  0
  2  3  1  0
  3  4  1  0
  4  5  2  0
  5  6  1  0
  6  7  2  0
  7  8  1  0
  8  9  2  0
  9  1  1  0
  9  4  1  0
  3 10  1  0
M  END
> <minimizedAffinity>
-6.76651

> <CNNscore>
0.4999508262

> <CNNaffinity>
4.5133934021

> <CNN_VS>
2.2564747334

> <CNNaffinity_variance>
0.7080189586

$$$$
MET_like


 16 17  0  0  0  0  0  0  0  0999 V2000
  -30.1680   -9.5100  140.6533 C   0  0  0  0  0  0  0  0  0  0  0  0
  -31.4648   -9.3206  140.2156 C   0  0  0  0  0  0  0  0  0  0  0  0
  -31.6368  -10.0325  139.0592 N   0  0  0  0  0  0  0  0  0  0  0  0
  -30.4746  -10.6866  138.7246 C   0  0  0  0  0  0  0  0  0  0  0  0
  -30.1891  -11.5197  137.6360 C   0  0  0  0  0  0  0  0  0  0  0  0
  -28.9007  -12.0554  137.5505 C   0  0  0  0  0  0  0  0  0  0  0  0
  -27.9390  -11.7682  138.5160 C   0  0  0  0  0  0  0  0  0  0  0  0
  -28.2419  -10.9335  139.5980 C   0  0  0  0  0  0  0  0  0  0  0  0
  -29.5341  -10.3798  139.7082 C   0  0  0  0  0  0  0  0  0  0  0  0
  -32.4919  -10.0764  138.5233 H   0  0  0  0  0  0  0  0  0  0  0  0
  -29.5476   -8.9161  141.8823 C   0  0  0  0  0  0  0  0  0  0  0  0
  -30.2129   -7.5867  142.2814 C   0  0  0  0  0  0  0  0  0  0  0  0
  -29.5273   -6.3866  141.7650 N   0  0  0  0  0  0  0  0  0  0  0  0
  -30.1574   -5.9385  140.5222 C   0  0  0  0  0  0  0  0  0  0  0  0
  -28.9361   -3.9421  142.1820 C   0  0  0  0  0  0  0  0  0  0  0  0
  -29.3911   -5.2901  142.7338 C   0  0  0  0  0  0  0  0  0  0  0  0
 15 16  1  0
 16 13  1  0
 13 14  1  0
 13 12  1  0
 12 11  1  0
 11  1  1  0
  1  2  2  0
  2  3  1  0
  3  4  1  0
  4  5  2  0
  5  6  1  0
  6  7  2  0
  7  8  1  0
  8  9  2  0
  9  1  1  0
  9  4  1  0
  3 10  1  0
M  END
> <minimizedAffinity>
-6.73093

> <CNNscore>
0.4953091741

> <CNNaffinity>
4.6946511269

> <CNN_VS>
2.3253037930

> <CNNaffinity_variance>
0.1413992643

$$$$
