DMT__p1
     RDKit          3D

 34 35  0  0  0  0  0  0  0  0999 V2000
  -23.9042  -16.7122    9.0398 C   0  0  0  0  0  0  0  0  0  0  0  0
  -24.7118  -15.4430    9.0757 C   0  0  0  0  0  0  0  0  0  0  0  0
  -25.2608  -15.0587   10.3201 C   0  0  0  0  0  0  0  0  0  0  0  0
  -25.9734  -13.8753   10.4763 C   0  0  0  0  0  0  0  0  0  0  0  0
  -26.1617  -13.0164    9.3996 C   0  0  0  0  0  0  0  0  0  0  0  0
  -25.6352  -13.3990    8.1618 C   0  0  0  0  0  0  0  0  0  0  0  0
  -25.6615  -12.7131    6.9718 N   0  0  0  0  0  0  0  0  0  0  0  0
  -25.0720  -13.4565    5.9904 C   0  0  0  0  0  0  0  0  0  0  0  0
  -24.6266  -14.6430    6.5449 C   0  0  0  0  0  0  0  0  0  0  0  0
  -23.9753  -15.7422    5.7588 C   0  0  0  0  0  0  0  0  0  0  0  0
  -24.9637  -16.4286    4.8024 C   0  0  0  0  0  0  0  0  0  0  0  0
  -26.1057  -17.0904    5.5635 N   0  0  0  0  0  0  0  0  0  0  0  0
  -27.4106  -16.9965    4.8264 C   0  0  0  0  0  0  0  0  0  0  0  0
  -25.7982  -18.5020    5.9662 C   0  0  0  0  0  0  0  0  0  0  0  0
  -24.9386  -14.5952    7.9537 C   0  0  0  0  0  0  0  0  0  0  0  0
  -22.9370  -16.5337    8.5613 H   0  0  0  0  0  0  0  0  0  0  0  0
  -23.6968  -17.0908   10.0465 H   0  0  0  0  0  0  0  0  0  0  0  0
  -24.4514  -17.4865    8.4982 H   0  0  0  0  0  0  0  0  0  0  0  0
  -25.1102  -15.6854   11.1990 H   0  0  0  0  0  0  0  0  0  0  0  0
  -26.3659  -13.6060   11.4550 H   0  0  0  0  0  0  0  0  0  0  0  0
  -26.6925  -12.0775    9.5283 H   0  0  0  0  0  0  0  0  0  0  0  0
  -26.0604  -11.7901    6.8537 H   0  0  0  0  0  0  0  0  0  0  0  0
  -25.0143  -13.0690    4.9807 H   0  0  0  0  0  0  0  0  0  0  0  0
  -23.1572  -15.3122    5.1672 H   0  0  0  0  0  0  0  0  0  0  0  0
  -23.5171  -16.4870    6.4115 H   0  0  0  0  0  0  0  0  0  0  0  0
  -25.4055  -15.6926    4.1206 H   0  0  0  0  0  0  0  0  0  0  0  0
  -24.4724  -17.2010    4.2007 H   0  0  0  0  0  0  0  0  0  0  0  0
  -26.2415  -16.5466    6.4308 H   0  0  0  0  0  0  0  0  0  0  0  0
  -27.3102  -17.5214    3.8727 H   0  0  0  0  0  0  0  0  0  0  0  0
  -27.6379  -15.9383    4.6716 H   0  0  0  0  0  0  0  0  0  0  0  0
  -28.1859  -17.4538    5.4468 H   0  0  0  0  0  0  0  0  0  0  0  0
  -24.8350  -18.5160    6.4793 H   0  0  0  0  0  0  0  0  0  0  0  0
  -26.5885  -18.8411    6.6409 H   0  0  0  0  0  0  0  0  0  0  0  0
  -25.7612  -19.1209    5.0655 H   0  0  0  0  0  0  0  0  0  0  0  0
  1  2  1  0
  2  3  2  0
  3  4  1  0
  4  5  2  0
  5  6  1  0
  6  7  1  0
  7  8  1  0
  8  9  2  0
  9 10  1  0
 10 11  1  0
 11 12  1  0
 12 13  1  0
 12 14  1  0
  9 15  1  0
 15  2  1  0
 15  6  2  0
  1 16  1  0
  1 17  1  0
  1 18  1  0
  3 19  1  0
  4 20  1  0
  5 21  1  0
  7 22  1  0
  8 23  1  0
 10 24  1  0
 10 25  1  0
 11 26  1  0
 11 27  1  0
 12 28  1  0
 13 29  1  0
 13 30  1  0
 13 31  1  0
 14 32  1  0
 14 33  1  0
 14 34  1  0
M  CHG  1  12   1
M  END
>  <input_smiles>  (1) 
CN(C)CCc1c[nH]c2cccc(C)c12

>  <prot_variant_index>  (1) 
1

>  <SMILES>  (1) 
Cc1cccc2[nH]cc(CC[NH+](C)C)c12

>  <ALIGN_METHOD>  (1) 
MCS

>  <ALIGN_STATUS>  (1) 
OK

$$$$
