DMT__p0
     RDKit          3D

 33 34  0  0  0  0  0  0  0  0999 V2000
  -24.0329  -16.7777    8.9713 C   0  0  0  0  0  0  0  0  0  0  0  0
  -24.7598  -15.4631    9.0617 C   0  0  0  0  0  0  0  0  0  0  0  0
  -25.2721  -15.0667   10.3164 C   0  0  0  0  0  0  0  0  0  0  0  0
  -25.9521  -13.8641   10.4844 C   0  0  0  0  0  0  0  0  0  0  0  0
  -26.1476  -13.0021    9.4089 C   0  0  0  0  0  0  0  0  0  0  0  0
  -25.6315  -13.3865    8.1667 C   0  0  0  0  0  0  0  0  0  0  0  0
  -25.6844  -12.7255    6.9641 N   0  0  0  0  0  0  0  0  0  0  0  0
  -25.0519  -13.4504    5.9948 C   0  0  0  0  0  0  0  0  0  0  0  0
  -24.5581  -14.6102    6.5636 C   0  0  0  0  0  0  0  0  0  0  0  0
  -23.7885  -15.7053    5.8722 C   0  0  0  0  0  0  0  0  0  0  0  0
  -23.2833  -15.3544    4.4604 C   0  0  0  0  0  0  0  0  0  0  0  0
  -22.4226  -16.3966    3.8600 N   0  0  0  0  0  0  0  0  0  0  0  0
  -23.1726  -17.6165    3.5544 C   0  0  0  0  0  0  0  0  0  0  0  0
  -21.7982  -15.8825    2.6378 C   0  0  0  0  0  0  0  0  0  0  0  0
  -24.9393  -14.5832    7.9578 C   0  0  0  0  0  0  0  0  0  0  0  0
  -22.9608  -16.6035    8.8398 H   0  0  0  0  0  0  0  0  0  0  0  0
  -24.1702  -17.3782    9.8767 H   0  0  0  0  0  0  0  0  0  0  0  0
  -24.4136  -17.3685    8.1332 H   0  0  0  0  0  0  0  0  0  0  0  0
  -25.1389  -15.7129   11.1823 H   0  0  0  0  0  0  0  0  0  0  0  0
  -26.3352  -13.5951   11.4657 H   0  0  0  0  0  0  0  0  0  0  0  0
  -26.6790  -12.0651    9.5377 H   0  0  0  0  0  0  0  0  0  0  0  0
  -26.1311  -11.8303    6.8245 H   0  0  0  0  0  0  0  0  0  0  0  0
  -25.0037  -13.0731    4.9823 H   0  0  0  0  0  0  0  0  0  0  0  0
  -24.4408  -16.5848    5.8266 H   0  0  0  0  0  0  0  0  0  0  0  0
  -22.9214  -15.9662    6.4909 H   0  0  0  0  0  0  0  0  0  0  0  0
  -22.6995  -14.4273    4.5406 H   0  0  0  0  0  0  0  0  0  0  0  0
  -24.1325  -15.1361    3.7989 H   0  0  0  0  0  0  0  0  0  0  0  0
  -24.0200  -17.4249    2.8863 H   0  0  0  0  0  0  0  0  0  0  0  0
  -23.5475  -18.0909    4.4665 H   0  0  0  0  0  0  0  0  0  0  0  0
  -22.5218  -18.3580    3.0767 H   0  0  0  0  0  0  0  0  0  0  0  0
  -21.1847  -15.0018    2.8586 H   0  0  0  0  0  0  0  0  0  0  0  0
  -21.1235  -16.6300    2.2055 H   0  0  0  0  0  0  0  0  0  0  0  0
  -22.5397  -15.6064    1.8792 H   0  0  0  0  0  0  0  0  0  0  0  0
  1  2  1  0
  2  3  2  0
  3  4  1  0
  4  5  2  0
  5  6  1  0
  6  7  1  0
  7  8  1  0
  8  9  2  0
  9 10  1  0
 10 11  1  0
 11 12  1  0
 12 13  1  0
 12 14  1  0
  9 15  1  0
 15  2  1  0
 15  6  2  0
  1 16  1  0
  1 17  1  0
  1 18  1  0
  3 19  1  0
  4 20  1  0
  5 21  1  0
  7 22  1  0
  8 23  1  0
 10 24  1  0
 10 25  1  0
 11 26  1  0
 11 27  1  0
 13 28  1  0
 13 29  1  0
 13 30  1  0
 14 31  1  0
 14 32  1  0
 14 33  1  0
M  END
>  <input_smiles>  (1) 
CN(C)CCc1c[nH]c2cccc(C)c12

>  <prot_variant_index>  (1) 
0

>  <SMILES>  (1) 
Cc1cccc2[nH]cc(CCN(C)C)c12

>  <ALIGN_METHOD>  (1) 
MCS

>  <ALIGN_STATUS>  (1) 
OK

$$$$
