DMT_like
     RDKit          3D

 30 31  0  0  0  0  0  0  0  0999 V2000
  -21.0600  -17.3041    6.1056 C   0  0  0  0  0  0  0  0  0  0  0  0
  -21.0427  -15.9483    5.5529 N   0  0  0  0  0  0  0  0  0  0  0  0
  -19.6874  -15.3972    5.6433 C   0  0  0  0  0  0  0  0  0  0  0  0
  -21.9922  -15.0565    6.2516 C   0  0  0  0  0  0  0  0  0  0  0  0
  -23.4699  -15.4070    6.0012 C   0  0  0  0  0  0  0  0  0  0  0  0
  -24.3985  -14.4158    6.6367 C   0  0  0  0  0  0  0  0  0  0  0  0
  -25.0156  -13.3516    6.0081 C   0  0  0  0  0  0  0  0  0  0  0  0
  -25.7779  -12.6892    6.9315 N   0  0  0  0  0  0  0  0  0  0  0  0
  -25.6734  -13.2974    8.1602 C   0  0  0  0  0  0  0  0  0  0  0  0
  -26.2694  -12.9677    9.3835 C   0  0  0  0  0  0  0  0  0  0  0  0
  -25.9793  -13.7783   10.4849 C   0  0  0  0  0  0  0  0  0  0  0  0
  -25.1279  -14.8737   10.3647 C   0  0  0  0  0  0  0  0  0  0  0  0
  -24.5406  -15.1888    9.1338 C   0  0  0  0  0  0  0  0  0  0  0  0
  -24.8158  -14.3870    8.0068 C   0  0  0  0  0  0  0  0  0  0  0  0
  -20.3224  -17.9356    5.5970 H   0  0  0  0  0  0  0  0  0  0  0  0
  -22.0291  -17.7861    5.9445 H   0  0  0  0  0  0  0  0  0  0  0  0
  -20.8381  -17.3164    7.1789 H   0  0  0  0  0  0  0  0  0  0  0  0
  -19.3435  -15.3126    6.6807 H   0  0  0  0  0  0  0  0  0  0  0  0
  -19.6426  -14.4044    5.1819 H   0  0  0  0  0  0  0  0  0  0  0  0
  -18.9779  -16.0265    5.0943 H   0  0  0  0  0  0  0  0  0  0  0  0
  -21.8347  -14.0291    5.8951 H   0  0  0  0  0  0  0  0  0  0  0  0
  -21.7844  -15.0434    7.3302 H   0  0  0  0  0  0  0  0  0  0  0  0
  -23.6612  -15.4421    4.9210 H   0  0  0  0  0  0  0  0  0  0  0  0
  -23.7054  -16.4028    6.3938 H   0  0  0  0  0  0  0  0  0  0  0  0
  -24.9753  -13.0124    4.9814 H   0  0  0  0  0  0  0  0  0  0  0  0
  -26.3394  -11.8705    6.7440 H   0  0  0  0  0  0  0  0  0  0  0  0
  -26.9340  -12.1157    9.4802 H   0  0  0  0  0  0  0  0  0  0  0  0
  -26.4269  -13.5494   11.4494 H   0  0  0  0  0  0  0  0  0  0  0  0
  -24.9165  -15.4919   11.2335 H   0  0  0  0  0  0  0  0  0  0  0  0
  -23.8794  -16.0459    9.0513 H   0  0  0  0  0  0  0  0  0  0  0  0
  1  2  1  0
  2  3  1  0
  2  4  1  0
  4  5  1  0
  5  6  1  0
  6  7  2  0
  7  8  1  0
  8  9  1  0
  9 10  2  0
 10 11  1  0
 11 12  2  0
 12 13  1  0
 13 14  2  0
 14  6  1  0
 14  9  1  0
  1 15  1  0
  1 16  1  0
  1 17  1  0
  3 18  1  0
  3 19  1  0
  3 20  1  0
  4 21  1  0
  4 22  1  0
  5 23  1  0
  5 24  1  0
  7 25  1  0
  8 26  1  0
 10 27  1  0
 11 28  1  0
 12 29  1  0
 13 30  1  0
M  END
>  <SMILES>  (1) 
CN(C)CCc1c[nH]c2ccccc12

>  <ALIGN_METHOD>  (1) 
MCS

>  <ALIGN_STATUS>  (1) 
OK

$$$$
