LSD__p0
     RDKit          3D

 54 58  0  0  0  0  0  0  0  0999 V2000
  -23.5305  -14.8953    1.6912 C   0  0  0  0  0  0  0  0  0  0  0  0
  -23.6671  -15.7684    2.8632 N   0  0  0  0  0  0  0  0  0  0  0  0
  -24.9491  -16.0995    3.2893 C   0  0  0  0  0  0  0  0  0  0  0  0
  -25.2112  -16.6607    4.4773 C   0  0  0  0  0  0  0  0  0  0  0  0
  -26.3308  -17.6363    4.6578 C   0  0  0  0  0  0  0  0  0  0  0  0
  -25.7230  -18.9463    5.2066 C   0  0  0  0  0  0  0  0  0  0  0  0
  -24.1692  -19.1141    4.9888 C   0  0  1  0  0  0  0  0  0  0  0  0
  -23.8244  -19.9447    3.7514 C   0  0  0  0  0  0  0  0  0  0  0  0
  -24.5282  -19.8324    2.5422 C   0  0  0  0  0  0  0  0  0  0  0  0
  -24.1878  -20.6188    1.4373 C   0  0  0  0  0  0  0  0  0  0  0  0
  -23.1387  -21.5287    1.5294 C   0  0  0  0  0  0  0  0  0  0  0  0
  -22.7185  -22.4914    0.1671 Cl  0  0  0  0  0  0  0  0  0  0  0  0
  -22.4259  -21.6599    2.7167 C   0  0  0  0  0  0  0  0  0  0  0  0
  -22.7680  -20.8736    3.8198 C   0  0  0  0  0  0  0  0  0  0  0  0
  -23.3426  -17.8903    5.2436 N   0  0  0  0  0  0  0  0  0  0  0  0
  -22.3103  -17.5064    4.2552 C   0  0  0  0  0  0  0  0  0  0  0  0
  -22.6586  -16.8795    2.8688 C   0  0  0  0  0  0  0  0  0  0  0  0
  -24.2015  -16.7379    5.5956 C   0  0  1  0  0  0  0  0  0  0  0  0
  -23.4802  -15.4173    5.9918 C   0  0  0  0  0  0  0  0  0  0  0  0
  -24.4028  -14.4177    6.6358 C   0  0  0  0  0  0  0  0  0  0  0  0
  -25.0159  -13.3500    6.0093 C   0  0  0  0  0  0  0  0  0  0  0  0
  -25.7760  -12.6869    6.9323 N   0  0  0  0  0  0  0  0  0  0  0  0
  -25.6738  -13.2966    8.1607 C   0  0  0  0  0  0  0  0  0  0  0  0
  -26.2711  -12.9685    9.3838 C   0  0  0  0  0  0  0  0  0  0  0  0
  -25.9812  -13.7797   10.4847 C   0  0  0  0  0  0  0  0  0  0  0  0
  -25.1281  -14.8740   10.3646 C   0  0  0  0  0  0  0  0  0  0  0  0
  -24.5397  -15.1876    9.1340 C   0  0  0  0  0  0  0  0  0  0  0  0
  -24.8153  -14.3856    8.0071 C   0  0  0  0  0  0  0  0  0  0  0  0
  -23.7639  -15.4404    0.7701 H   0  0  0  0  0  0  0  0  0  0  0  0
  -24.2056  -14.0361    1.7717 H   0  0  0  0  0  0  0  0  0  0  0  0
  -22.5104  -14.5034    1.6212 H   0  0  0  0  0  0  0  0  0  0  0  0
  -25.6879  -16.0835    2.4908 H   0  0  0  0  0  0  0  0  0  0  0  0
  -26.8489  -17.8356    3.7130 H   0  0  0  0  0  0  0  0  0  0  0  0
  -27.0775  -17.2431    5.3567 H   0  0  0  0  0  0  0  0  0  0  0  0
  -25.9078  -18.9600    6.2911 H   0  0  0  0  0  0  0  0  0  0  0  0
  -26.2779  -19.8081    4.8151 H   0  0  0  0  0  0  0  0  0  0  0  0
  -23.8910  -19.7743    5.8251 H   0  0  0  0  0  0  0  0  0  0  0  0
  -25.3410  -19.1199    2.4368 H   0  0  0  0  0  0  0  0  0  0  0  0
  -24.7441  -20.5119    0.5098 H   0  0  0  0  0  0  0  0  0  0  0  0
  -21.6056  -22.3682    2.7932 H   0  0  0  0  0  0  0  0  0  0  0  0
  -22.1997  -20.9827    4.7423 H   0  0  0  0  0  0  0  0  0  0  0  0
  -21.6457  -18.3609    4.0798 H   0  0  0  0  0  0  0  0  0  0  0  0
  -21.6423  -16.7932    4.7571 H   0  0  0  0  0  0  0  0  0  0  0  0
  -22.9940  -17.6547    2.1737 H   0  0  0  0  0  0  0  0  0  0  0  0
  -21.7158  -16.4974    2.4555 H   0  0  0  0  0  0  0  0  0  0  0  0
  -24.7311  -17.0167    6.5186 H   0  0  0  0  0  0  0  0  0  0  0  0
  -22.9776  -14.9362    5.1468 H   0  0  0  0  0  0  0  0  0  0  0  0
  -22.6859  -15.6543    6.7129 H   0  0  0  0  0  0  0  0  0  0  0  0
  -24.9757  -13.0188    4.9798 H   0  0  0  0  0  0  0  0  0  0  0  0
  -26.3357  -11.8676    6.7443 H   0  0  0  0  0  0  0  0  0  0  0  0
  -26.9355  -12.1164    9.4805 H   0  0  0  0  0  0  0  0  0  0  0  0
  -26.4286  -13.5514   11.4493 H   0  0  0  0  0  0  0  0  0  0  0  0
  -24.9149  -15.4917   11.2332 H   0  0  0  0  0  0  0  0  0  0  0  0
  -23.8756  -16.0427    9.0506 H   0  0  0  0  0  0  0  0  0  0  0  0
  1  2  1  0
  2  3  1  0
  3  4  2  0
  4  5  1  0
  5  6  1  0
  6  7  1  0
  7  8  1  0
  8  9  2  0
  9 10  1  0
 10 11  2  0
 11 12  1  0
 11 13  1  0
 13 14  2  0
  7 15  1  0
 15 16  1  0
 16 17  1  0
 15 18  1  0
 18 19  1  0
 19 20  1  0
 20 21  2  0
 21 22  1  0
 22 23  1  0
 23 24  2  0
 24 25  1  0
 25 26  2  0
 26 27  1  0
 27 28  2  0
 17  2  1  0
 28 20  1  0
 18  4  1  0
 28 23  1  0
 14  8  1  0
  1 29  1  0
  1 30  1  0
  1 31  1  0
  3 32  1  0
  5 33  1  0
  5 34  1  0
  6 35  1  0
  6 36  1  0
  7 37  1  1
  9 38  1  0
 10 39  1  0
 13 40  1  0
 14 41  1  0
 16 42  1  0
 16 43  1  0
 17 44  1  0
 17 45  1  0
 18 46  1  1
 19 47  1  0
 19 48  1  0
 21 49  1  0
 22 50  1  0
 24 51  1  0
 25 52  1  0
 26 53  1  0
 27 54  1  0
M  END
>  <input_smiles>  (1) 
CN1CCN(C2CC3=CNC4=CC=CC=C34)C(CCC2=C1)c5ccc(Cl)cc5

>  <prot_variant_index>  (1) 
0

>  <SMILES>  (1) 
CN1C=C2CC[C@@H](c3ccc(Cl)cc3)N(CC1)[C@H]2Cc1c[nH]c2ccccc12

>  <ALIGN_METHOD>  (1) 
MCS

>  <ALIGN_STATUS>  (1) 
OK

$$$$
