LSD__p3
     RDKit          3D

 56 60  0  0  0  0  0  0  0  0999 V2000
  -24.0363  -17.1908    1.5968 C   0  0  0  0  0  0  0  0  0  0  0  0
  -24.1419  -16.8996    3.0953 N   0  0  2  0  0  0  0  0  0  0  0  0
  -23.7833  -18.0786    3.8308 C   0  0  0  0  0  0  0  0  0  0  0  0
  -23.8534  -18.0808    5.1721 C   0  0  0  0  0  0  0  0  0  0  0  0
  -24.0477  -19.3909    5.9126 C   0  0  0  0  0  0  0  0  0  0  0  0
  -25.5573  -19.5191    6.2421 C   0  0  0  0  0  0  0  0  0  0  0  0
  -26.2182  -18.2226    6.8160 C   0  0  2  0  0  0  0  0  0  0  0  0
  -27.7243  -18.2170    6.9998 C   0  0  0  0  0  0  0  0  0  0  0  0
  -28.5826  -19.1327    6.3704 C   0  0  0  0  0  0  0  0  0  0  0  0
  -29.9684  -19.0539    6.5516 C   0  0  0  0  0  0  0  0  0  0  0  0
  -30.5133  -18.0642    7.3641 C   0  0  0  0  0  0  0  0  0  0  0  0
  -32.2145  -17.9665    7.5719 Cl  0  0  0  0  0  0  0  0  0  0  0  0
  -29.6818  -17.1535    8.0062 C   0  0  0  0  0  0  0  0  0  0  0  0
  -28.2976  -17.2290    7.8280 C   0  0  0  0  0  0  0  0  0  0  0  0
  -25.7506  -16.9852    5.9878 N   0  0  2  0  0  0  0  0  0  0  0  0
  -26.3720  -16.9260    4.5847 C   0  0  0  0  0  0  0  0  0  0  0  0
  -25.5225  -16.2806    3.4409 C   0  0  0  0  0  0  0  0  0  0  0  0
  -24.2455  -16.9406    6.0641 C   0  0  2  0  0  0  0  0  0  0  0  0
  -23.6291  -15.5206    5.9451 C   0  0  0  0  0  0  0  0  0  0  0  0
  -24.4598  -14.4645    6.6114 C   0  0  0  0  0  0  0  0  0  0  0  0
  -25.0439  -13.3738    5.9956 C   0  0  0  0  0  0  0  0  0  0  0  0
  -25.7567  -12.6744    6.9370 N   0  0  0  0  0  0  0  0  0  0  0  0
  -25.6864  -13.3179    8.1494 C   0  0  0  0  0  0  0  0  0  0  0  0
  -26.2897  -12.9906    9.3686 C   0  0  0  0  0  0  0  0  0  0  0  0
  -26.0003  -13.7956   10.4720 C   0  0  0  0  0  0  0  0  0  0  0  0
  -25.1275  -14.8734   10.3620 C   0  0  0  0  0  0  0  0  0  0  0  0
  -24.5308  -15.1869    9.1351 C   0  0  0  0  0  0  0  0  0  0  0  0
  -24.8276  -14.4056    7.9976 C   0  0  0  0  0  0  0  0  0  0  0  0
  -24.7779  -17.9516    1.3357 H   0  0  0  0  0  0  0  0  0  0  0  0
  -23.0180  -17.5314    1.3861 H   0  0  0  0  0  0  0  0  0  0  0  0
  -24.2303  -16.2539    1.0670 H   0  0  0  0  0  0  0  0  0  0  0  0
  -23.4144  -16.1771    3.2133 H   0  0  0  0  0  0  0  0  0  0  0  0
  -23.6078  -19.0233    3.3038 H   0  0  0  0  0  0  0  0  0  0  0  0
  -23.4483  -19.4025    6.8304 H   0  0  0  0  0  0  0  0  0  0  0  0
  -23.7280  -20.2528    5.3157 H   0  0  0  0  0  0  0  0  0  0  0  0
  -25.7000  -20.3430    6.9524 H   0  0  0  0  0  0  0  0  0  0  0  0
  -26.0656  -19.8273    5.3205 H   0  0  0  0  0  0  0  0  0  0  0  0
  -25.7927  -18.0712    7.8187 H   0  0  0  0  0  0  0  0  0  0  0  0
  -28.2140  -19.9378    5.7392 H   0  0  0  0  0  0  0  0  0  0  0  0
  -30.6228  -19.7760    6.0649 H   0  0  0  0  0  0  0  0  0  0  0  0
  -30.1073  -16.3906    8.6563 H   0  0  0  0  0  0  0  0  0  0  0  0
  -27.6799  -16.5106    8.3682 H   0  0  0  0  0  0  0  0  0  0  0  0
  -26.1137  -16.1758    6.5174 H   0  0  0  0  0  0  0  0  0  0  0  0
  -27.3024  -16.3590    4.7013 H   0  0  0  0  0  0  0  0  0  0  0  0
  -26.6407  -17.9438    4.2854 H   0  0  0  0  0  0  0  0  0  0  0  0
  -25.3316  -15.2242    3.6490 H   0  0  0  0  0  0  0  0  0  0  0  0
  -26.1214  -16.3161    2.5228 H   0  0  0  0  0  0  0  0  0  0  0  0
  -23.9906  -17.2211    7.0951 H   0  0  0  0  0  0  0  0  0  0  0  0
  -22.6360  -15.5348    6.4145 H   0  0  0  0  0  0  0  0  0  0  0  0
  -23.4400  -15.2203    4.9152 H   0  0  0  0  0  0  0  0  0  0  0  0
  -24.9974  -12.9980    4.9811 H   0  0  0  0  0  0  0  0  0  0  0  0
  -26.2536  -11.8041    6.7816 H   0  0  0  0  0  0  0  0  0  0  0  0
  -26.9438  -12.1285    9.4720 H   0  0  0  0  0  0  0  0  0  0  0  0
  -26.4404  -13.5549   11.4394 H   0  0  0  0  0  0  0  0  0  0  0  0
  -24.8899  -15.4588   11.2492 H   0  0  0  0  0  0  0  0  0  0  0  0
  -23.8220  -16.0083    9.0983 H   0  0  0  0  0  0  0  0  0  0  0  0
  1  2  1  0
  2  3  1  0
  3  4  2  0
  4  5  1  0
  5  6  1  0
  6  7  1  0
  7  8  1  0
  8  9  2  0
  9 10  1  0
 10 11  2  0
 11 12  1  0
 11 13  1  0
 13 14  2  0
  7 15  1  0
 15 16  1  0
 16 17  1  0
 15 18  1  0
 18 19  1  0
 19 20  1  0
 20 21  2  0
 21 22  1  0
 22 23  1  0
 23 24  2  0
 24 25  1  0
 25 26  2  0
 26 27  1  0
 27 28  2  0
 17  2  1  0
 28 20  1  0
 18  4  1  0
 28 23  1  0
 14  8  1  0
  1 29  1  0
  1 30  1  0
  1 31  1  0
  2 32  1  1
  3 33  1  0
  5 34  1  0
  5 35  1  0
  6 36  1  0
  6 37  1  0
  7 38  1  1
  9 39  1  0
 10 40  1  0
 13 41  1  0
 14 42  1  0
 15 43  1  1
 16 44  1  0
 16 45  1  0
 17 46  1  0
 17 47  1  0
 18 48  1  1
 19 49  1  0
 19 50  1  0
 21 51  1  0
 22 52  1  0
 24 53  1  0
 25 54  1  0
 26 55  1  0
 27 56  1  0
M  CHG  2   2   1  15   1
M  END
>  <input_smiles>  (1) 
CN1CCN(C2CC3=CNC4=CC=CC=C34)C(CCC2=C1)c5ccc(Cl)cc5

>  <prot_variant_index>  (1) 
3

>  <SMILES>  (1) 
C[N@@H+]1C=C2CC[C@H](c3ccc(Cl)cc3)[N@H+](CC1)[C@@H]2Cc1c[nH]c2ccccc12

>  <ALIGN_METHOD>  (1) 
MCS

>  <ALIGN_STATUS>  (1) 
OK

$$$$
