LSD__p1
     RDKit          3D

 55 59  0  0  0  0  0  0  0  0999 V2000
  -24.2675  -16.2234    0.4661 C   0  0  0  0  0  0  0  0  0  0  0  0
  -24.3647  -16.2488    1.9683 N   0  0  2  0  0  0  0  0  0  0  0  0
  -23.2207  -16.9103    2.5377 C   0  0  0  0  0  0  0  0  0  0  0  0
  -23.0831  -16.8839    3.8764 C   0  0  0  0  0  0  0  0  0  0  0  0
  -22.2151  -17.8792    4.5964 C   0  0  0  0  0  0  0  0  0  0  0  0
  -22.9666  -18.5369    5.7734 C   0  0  0  0  0  0  0  0  0  0  0  0
  -24.5314  -18.4279    5.7625 C   0  0  1  0  0  0  0  0  0  0  0  0
  -25.1405  -18.5274    7.1685 C   0  0  0  0  0  0  0  0  0  0  0  0
  -24.6391  -19.4567    8.1000 C   0  0  0  0  0  0  0  0  0  0  0  0
  -25.2024  -19.5816    9.3747 C   0  0  0  0  0  0  0  0  0  0  0  0
  -26.2889  -18.7912    9.7331 C   0  0  0  0  0  0  0  0  0  0  0  0
  -26.9715  -18.9326   11.3043 Cl  0  0  0  0  0  0  0  0  0  0  0  0
  -26.8243  -17.8880    8.8230 C   0  0  0  0  0  0  0  0  0  0  0  0
  -26.2582  -17.7631    7.5499 C   0  0  0  0  0  0  0  0  0  0  0  0
  -25.0778  -17.2651    4.9892 N   0  0  0  0  0  0  0  0  0  0  0  0
  -25.6933  -17.7450    3.7116 C   0  0  0  0  0  0  0  0  0  0  0  0
  -25.7255  -16.8134    2.4545 C   0  0  0  0  0  0  0  0  0  0  0  0
  -24.0879  -16.1990    4.7709 C   0  0  1  0  0  0  0  0  0  0  0  0
  -23.4922  -15.4439    5.9954 C   0  0  0  0  0  0  0  0  0  0  0  0
  -24.4284  -14.4455    6.6205 C   0  0  0  0  0  0  0  0  0  0  0  0
  -25.0190  -13.3566    6.0034 C   0  0  0  0  0  0  0  0  0  0  0  0
  -25.7798  -12.6935    6.9306 N   0  0  0  0  0  0  0  0  0  0  0  0
  -25.6831  -13.3101    8.1540 C   0  0  0  0  0  0  0  0  0  0  0  0
  -26.2751  -12.9751    9.3779 C   0  0  0  0  0  0  0  0  0  0  0  0
  -25.9806  -13.7781   10.4827 C   0  0  0  0  0  0  0  0  0  0  0  0
  -25.1216  -14.8664   10.3667 C   0  0  0  0  0  0  0  0  0  0  0  0
  -24.5364  -15.1842    9.1354 C   0  0  0  0  0  0  0  0  0  0  0  0
  -24.8281  -14.4010    7.9987 C   0  0  0  0  0  0  0  0  0  0  0  0
  -23.3363  -15.7204    0.1883 H   0  0  0  0  0  0  0  0  0  0  0  0
  -25.1210  -15.6539    0.0878 H   0  0  0  0  0  0  0  0  0  0  0  0
  -24.2902  -17.2508    0.0898 H   0  0  0  0  0  0  0  0  0  0  0  0
  -24.3437  -15.2574    2.2471 H   0  0  0  0  0  0  0  0  0  0  0  0
  -22.5601  -17.5277    1.9258 H   0  0  0  0  0  0  0  0  0  0  0  0
  -21.8787  -18.6662    3.9100 H   0  0  0  0  0  0  0  0  0  0  0  0
  -21.3122  -17.3819    4.9700 H   0  0  0  0  0  0  0  0  0  0  0  0
  -22.6846  -19.5986    5.8028 H   0  0  0  0  0  0  0  0  0  0  0  0
  -22.5614  -18.1209    6.7045 H   0  0  0  0  0  0  0  0  0  0  0  0
  -24.8859  -19.3552    5.2885 H   0  0  0  0  0  0  0  0  0  0  0  0
  -23.8031  -20.1057    7.8491 H   0  0  0  0  0  0  0  0  0  0  0  0
  -24.7908  -20.2996   10.0796 H   0  0  0  0  0  0  0  0  0  0  0  0
  -27.6714  -17.2646    9.0977 H   0  0  0  0  0  0  0  0  0  0  0  0
  -26.6994  -17.0384    6.8690 H   0  0  0  0  0  0  0  0  0  0  0  0
  -26.7290  -18.0233    3.9430 H   0  0  0  0  0  0  0  0  0  0  0  0
  -25.2071  -18.6712    3.3729 H   0  0  0  0  0  0  0  0  0  0  0  0
  -26.3586  -15.9383    2.6390 H   0  0  0  0  0  0  0  0  0  0  0  0
  -26.1553  -17.3746    1.6165 H   0  0  0  0  0  0  0  0  0  0  0  0
  -24.5977  -15.3989    4.2263 H   0  0  0  0  0  0  0  0  0  0  0  0
  -23.1385  -16.1268    6.7687 H   0  0  0  0  0  0  0  0  0  0  0  0
  -22.6029  -14.8891    5.6644 H   0  0  0  0  0  0  0  0  0  0  0  0
  -24.9599  -12.9835    4.9910 H   0  0  0  0  0  0  0  0  0  0  0  0
  -26.3177  -11.8545    6.7602 H   0  0  0  0  0  0  0  0  0  0  0  0
  -26.9371  -12.1207    9.4764 H   0  0  0  0  0  0  0  0  0  0  0  0
  -26.4250  -13.5457   11.4483 H   0  0  0  0  0  0  0  0  0  0  0  0
  -24.9046  -15.4793   11.2386 H   0  0  0  0  0  0  0  0  0  0  0  0
  -23.8734  -16.0412    9.0658 H   0  0  0  0  0  0  0  0  0  0  0  0
  1  2  1  0
  2  3  1  0
  3  4  2  0
  4  5  1  0
  5  6  1  0
  6  7  1  0
  7  8  1  0
  8  9  2  0
  9 10  1  0
 10 11  2  0
 11 12  1  0
 11 13  1  0
 13 14  2  0
  7 15  1  0
 15 16  1  0
 16 17  1  0
 15 18  1  0
 18 19  1  0
 19 20  1  0
 20 21  2  0
 21 22  1  0
 22 23  1  0
 23 24  2  0
 24 25  1  0
 25 26  2  0
 26 27  1  0
 27 28  2  0
 17  2  1  0
 28 20  1  0
 18  4  1  0
 28 23  1  0
 14  8  1  0
  1 29  1  0
  1 30  1  0
  1 31  1  0
  2 32  1  1
  3 33  1  0
  5 34  1  0
  5 35  1  0
  6 36  1  0
  6 37  1  0
  7 38  1  6
  9 39  1  0
 10 40  1  0
 13 41  1  0
 14 42  1  0
 16 43  1  0
 16 44  1  0
 17 45  1  0
 17 46  1  0
 18 47  1  6
 19 48  1  0
 19 49  1  0
 21 50  1  0
 22 51  1  0
 24 52  1  0
 25 53  1  0
 26 54  1  0
 27 55  1  0
M  CHG  1   2   1
M  END
>  <input_smiles>  (1) 
CN1CCN(C2CC3=CNC4=CC=CC=C34)C(CCC2=C1)c5ccc(Cl)cc5

>  <prot_variant_index>  (1) 
1

>  <SMILES>  (1) 
C[N@@H+]1C=C2CC[C@@H](c3ccc(Cl)cc3)N(CC1)[C@H]2Cc1c[nH]c2ccccc12

>  <ALIGN_METHOD>  (1) 
MCS

>  <ALIGN_STATUS>  (1) 
OK

$$$$
