LSD__p2
     RDKit          3D

 55 59  0  0  0  0  0  0  0  0999 V2000
  -21.9971  -16.3683    2.0454 C   0  0  0  0  0  0  0  0  0  0  0  0
  -21.7528  -16.0248    3.4556 N   0  0  0  0  0  0  0  0  0  0  0  0
  -21.2423  -14.7787    3.7844 C   0  0  0  0  0  0  0  0  0  0  0  0
  -21.2262  -14.2789    5.0268 C   0  0  0  0  0  0  0  0  0  0  0  0
  -20.1240  -13.3831    5.5080 C   0  0  0  0  0  0  0  0  0  0  0  0
  -19.1334  -14.3027    6.2629 C   0  0  0  0  0  0  0  0  0  0  0  0
  -19.7964  -15.3102    7.2629 C   0  0  2  0  0  0  0  0  0  0  0  0
  -18.8763  -16.3167    7.9392 C   0  0  0  0  0  0  0  0  0  0  0  0
  -17.6291  -16.6915    7.4114 C   0  0  0  0  0  0  0  0  0  0  0  0
  -16.8330  -17.6429    8.0594 C   0  0  0  0  0  0  0  0  0  0  0  0
  -17.2726  -18.2340    9.2399 C   0  0  0  0  0  0  0  0  0  0  0  0
  -16.2946  -19.4058   10.0283 Cl  0  0  0  0  0  0  0  0  0  0  0  0
  -18.5028  -17.8778    9.7827 C   0  0  0  0  0  0  0  0  0  0  0  0
  -19.2988  -16.9251    9.1386 C   0  0  0  0  0  0  0  0  0  0  0  0
  -21.0279  -16.0072    6.6282 N   0  0  2  0  0  0  0  0  0  0  0  0
  -20.6456  -17.0481    5.5544 C   0  0  0  0  0  0  0  0  0  0  0  0
  -21.6200  -17.2132    4.3513 C   0  0  0  0  0  0  0  0  0  0  0  0
  -21.9617  -14.9094    6.1653 C   0  0  2  0  0  0  0  0  0  0  0  0
  -23.4324  -15.3737    5.9973 C   0  0  0  0  0  0  0  0  0  0  0  0
  -24.3861  -14.4055    6.6372 C   0  0  0  0  0  0  0  0  0  0  0  0
  -25.0102  -13.3457    6.0079 C   0  0  0  0  0  0  0  0  0  0  0  0
  -25.7847  -12.6934    6.9297 N   0  0  0  0  0  0  0  0  0  0  0  0
  -25.6648  -13.2962    8.1602 C   0  0  0  0  0  0  0  0  0  0  0  0
  -26.2591  -12.9637    9.3829 C   0  0  0  0  0  0  0  0  0  0  0  0
  -25.9701  -13.7728   10.4845 C   0  0  0  0  0  0  0  0  0  0  0  0
  -25.1241  -14.8723   10.3643 C   0  0  0  0  0  0  0  0  0  0  0  0
  -24.5368  -15.1915    9.1336 C   0  0  0  0  0  0  0  0  0  0  0  0
  -24.8067  -14.3863    8.0068 C   0  0  0  0  0  0  0  0  0  0  0  0
  -22.8057  -17.1027    1.9726 H   0  0  0  0  0  0  0  0  0  0  0  0
  -22.3027  -15.4848    1.4733 H   0  0  0  0  0  0  0  0  0  0  0  0
  -21.0928  -16.7890    1.5930 H   0  0  0  0  0  0  0  0  0  0  0  0
  -20.6801  -14.3140    2.9730 H   0  0  0  0  0  0  0  0  0  0  0  0
  -19.6091  -12.8786    4.6828 H   0  0  0  0  0  0  0  0  0  0  0  0
  -20.5179  -12.6040    6.1703 H   0  0  0  0  0  0  0  0  0  0  0  0
  -18.5541  -14.8467    5.5068 H   0  0  0  0  0  0  0  0  0  0  0  0
  -18.4099  -13.6795    6.8036 H   0  0  0  0  0  0  0  0  0  0  0  0
  -20.2118  -14.6992    8.0783 H   0  0  0  0  0  0  0  0  0  0  0  0
  -17.2366  -16.2580    6.4939 H   0  0  0  0  0  0  0  0  0  0  0  0
  -15.8653  -17.9145    7.6401 H   0  0  0  0  0  0  0  0  0  0  0  0
  -18.8416  -18.3339   10.7113 H   0  0  0  0  0  0  0  0  0  0  0  0
  -20.2476  -16.6567    9.6017 H   0  0  0  0  0  0  0  0  0  0  0  0
  -21.5069  -16.5082    7.3816 H   0  0  0  0  0  0  0  0  0  0  0  0
  -20.5632  -18.0000    6.0921 H   0  0  0  0  0  0  0  0  0  0  0  0
  -19.6531  -16.7900    5.1709 H   0  0  0  0  0  0  0  0  0  0  0  0
  -22.6108  -17.5254    4.6955 H   0  0  0  0  0  0  0  0  0  0  0  0
  -21.2338  -18.0507    3.7555 H   0  0  0  0  0  0  0  0  0  0  0  0
  -21.9828  -14.1918    6.9980 H   0  0  0  0  0  0  0  0  0  0  0  0
  -23.5832  -16.3536    6.4678 H   0  0  0  0  0  0  0  0  0  0  0  0
  -23.7261  -15.4747    4.9470 H   0  0  0  0  0  0  0  0  0  0  0  0
  -24.9788  -13.0021    4.9808 H   0  0  0  0  0  0  0  0  0  0  0  0
  -26.3639  -11.8845    6.7394 H   0  0  0  0  0  0  0  0  0  0  0  0
  -26.9301  -12.1152    9.4784 H   0  0  0  0  0  0  0  0  0  0  0  0
  -26.4242  -13.5463   11.4472 H   0  0  0  0  0  0  0  0  0  0  0  0
  -24.9305  -15.4938   11.2357 H   0  0  0  0  0  0  0  0  0  0  0  0
  -23.8997  -16.0659    9.0615 H   0  0  0  0  0  0  0  0  0  0  0  0
  1  2  1  0
  2  3  1  0
  3  4  2  0
  4  5  1  0
  5  6  1  0
  6  7  1  0
  7  8  1  0
  8  9  2  0
  9 10  1  0
 10 11  2  0
 11 12  1  0
 11 13  1  0
 13 14  2  0
  7 15  1  0
 15 16  1  0
 16 17  1  0
 15 18  1  0
 18 19  1  0
 19 20  1  0
 20 21  2  0
 21 22  1  0
 22 23  1  0
 23 24  2  0
 24 25  1  0
 25 26  2  0
 26 27  1  0
 27 28  2  0
 17  2  1  0
 28 20  1  0
 18  4  1  0
 28 23  1  0
 14  8  1  0
  1 29  1  0
  1 30  1  0
  1 31  1  0
  3 32  1  0
  5 33  1  0
  5 34  1  0
  6 35  1  0
  6 36  1  0
  7 37  1  1
  9 38  1  0
 10 39  1  0
 13 40  1  0
 14 41  1  0
 15 42  1  1
 16 43  1  0
 16 44  1  0
 17 45  1  0
 17 46  1  0
 18 47  1  1
 19 48  1  0
 19 49  1  0
 21 50  1  0
 22 51  1  0
 24 52  1  0
 25 53  1  0
 26 54  1  0
 27 55  1  0
M  CHG  1  15   1
M  END
>  <input_smiles>  (1) 
CN1CCN(C2CC3=CNC4=CC=CC=C34)C(CCC2=C1)c5ccc(Cl)cc5

>  <prot_variant_index>  (1) 
2

>  <SMILES>  (1) 
CN1C=C2CC[C@H](c3ccc(Cl)cc3)[N@H+](CC1)[C@@H]2Cc1c[nH]c2ccccc12

>  <ALIGN_METHOD>  (1) 
MCS

>  <ALIGN_STATUS>  (1) 
OK

$$$$
