MET_like
     RDKit          3D

 33 34  0  0  0  0  0  0  0  0999 V2000
  -23.3582  -16.9397    2.6490 C   0  0  0  0  0  0  0  0  0  0  0  0
  -22.5588  -17.3904    3.8684 C   0  0  0  0  0  0  0  0  0  0  0  0
  -23.3313  -17.7619    5.0620 N   0  0  0  0  0  0  0  0  0  0  0  0
  -24.0905  -18.9961    4.8554 C   0  0  0  0  0  0  0  0  0  0  0  0
  -24.2140  -16.7004    5.5827 C   0  0  0  0  0  0  0  0  0  0  0  0
  -23.4783  -15.4149    6.0013 C   0  0  0  0  0  0  0  0  0  0  0  0
  -24.4016  -14.4187    6.6363 C   0  0  0  0  0  0  0  0  0  0  0  0
  -25.0173  -13.3536    6.0072 C   0  0  0  0  0  0  0  0  0  0  0  0
  -25.7763  -12.6883    6.9318 N   0  0  0  0  0  0  0  0  0  0  0  0
  -25.6742  -13.2976    8.1600 C   0  0  0  0  0  0  0  0  0  0  0  0
  -26.2710  -12.9685    9.3832 C   0  0  0  0  0  0  0  0  0  0  0  0
  -25.9810  -13.7792   10.4845 C   0  0  0  0  0  0  0  0  0  0  0  0
  -25.1281  -14.8737   10.3647 C   0  0  0  0  0  0  0  0  0  0  0  0
  -24.5398  -15.1878    9.1342 C   0  0  0  0  0  0  0  0  0  0  0  0
  -24.8157  -14.3865    8.0071 C   0  0  0  0  0  0  0  0  0  0  0  0
  -22.6751  -16.7202    1.8216 H   0  0  0  0  0  0  0  0  0  0  0  0
  -24.0491  -17.7156    2.3065 H   0  0  0  0  0  0  0  0  0  0  0  0
  -23.9290  -16.0286    2.8510 H   0  0  0  0  0  0  0  0  0  0  0  0
  -21.8437  -16.6023    4.1320 H   0  0  0  0  0  0  0  0  0  0  0  0
  -21.9299  -18.2416    3.5765 H   0  0  0  0  0  0  0  0  0  0  0  0
  -24.9054  -18.8726    4.1342 H   0  0  0  0  0  0  0  0  0  0  0  0
  -24.5247  -19.3399    5.8012 H   0  0  0  0  0  0  0  0  0  0  0  0
  -23.4363  -19.8024    4.5057 H   0  0  0  0  0  0  0  0  0  0  0  0
  -25.0049  -16.4587    4.8606 H   0  0  0  0  0  0  0  0  0  0  0  0
  -24.7286  -17.0912    6.4713 H   0  0  0  0  0  0  0  0  0  0  0  0
  -23.0055  -14.9440    5.1312 H   0  0  0  0  0  0  0  0  0  0  0  0
  -22.6716  -15.6593    6.7037 H   0  0  0  0  0  0  0  0  0  0  0  0
  -24.9771  -13.0135    4.9810 H   0  0  0  0  0  0  0  0  0  0  0  0
  -26.3336  -11.8665    6.7460 H   0  0  0  0  0  0  0  0  0  0  0  0
  -26.9353  -12.1163    9.4801 H   0  0  0  0  0  0  0  0  0  0  0  0
  -26.4281  -13.5506   11.4491 H   0  0  0  0  0  0  0  0  0  0  0  0
  -24.9149  -15.4913   11.2335 H   0  0  0  0  0  0  0  0  0  0  0  0
  -23.8760  -16.0435    9.0513 H   0  0  0  0  0  0  0  0  0  0  0  0
  1  2  1  0
  2  3  1  0
  3  4  1  0
  3  5  1  0
  5  6  1  0
  6  7  1  0
  7  8  2  0
  8  9  1  0
  9 10  1  0
 10 11  2  0
 11 12  1  0
 12 13  2  0
 13 14  1  0
 14 15  2  0
 15  7  1  0
 15 10  1  0
  1 16  1  0
  1 17  1  0
  1 18  1  0
  2 19  1  0
  2 20  1  0
  4 21  1  0
  4 22  1  0
  4 23  1  0
  5 24  1  0
  5 25  1  0
  6 26  1  0
  6 27  1  0
  8 28  1  0
  9 29  1  0
 11 30  1  0
 12 31  1  0
 13 32  1  0
 14 33  1  0
M  END
>  <SMILES>  (1) 
CCN(C)CCc1c[nH]c2ccccc12

>  <ALIGN_METHOD>  (1) 
MCS

>  <ALIGN_STATUS>  (1) 
OK

$$$$
