Psilocin__p1
     RDKit          3D

 31 32  0  0  0  0  0  0  0  0999 V2000
  -24.6048  -19.3286    4.9586 C   0  0  0  0  0  0  0  0  0  0  0  0
  -23.8017  -18.2159    5.5439 N   0  0  0  0  0  0  0  0  0  0  0  0
  -23.1101  -18.6625    6.8149 C   0  0  0  0  0  0  0  0  0  0  0  0
  -24.6713  -16.9865    5.8062 C   0  0  0  0  0  0  0  0  0  0  0  0
  -23.8305  -15.7088    5.8993 C   0  0  0  0  0  0  0  0  0  0  0  0
  -24.5825  -14.6100    6.5685 C   0  0  0  0  0  0  0  0  0  0  0  0
  -25.0581  -13.4522    5.9878 C   0  0  0  0  0  0  0  0  0  0  0  0
  -25.6807  -12.7243    6.9632 N   0  0  0  0  0  0  0  0  0  0  0  0
  -25.6357  -13.3852    8.1685 C   0  0  0  0  0  0  0  0  0  0  0  0
  -26.1555  -12.9978    9.4071 C   0  0  0  0  0  0  0  0  0  0  0  0
  -25.9590  -13.8619   10.4797 C   0  0  0  0  0  0  0  0  0  0  0  0
  -25.2684  -15.0619   10.3116 C   0  0  0  0  0  0  0  0  0  0  0  0
  -24.7362  -15.4719    9.0733 C   0  0  0  0  0  0  0  0  0  0  0  0
  -24.0970  -16.5528    8.8656 O   0  0  0  0  0  0  0  0  0  0  0  0
  -24.9397  -14.5832    7.9703 C   0  0  0  0  0  0  0  0  0  0  0  0
  -23.9361  -20.1737    4.7742 H   0  0  0  0  0  0  0  0  0  0  0  0
  -25.0267  -18.9840    4.0107 H   0  0  0  0  0  0  0  0  0  0  0  0
  -25.3964  -19.6036    5.6612 H   0  0  0  0  0  0  0  0  0  0  0  0
  -23.0695  -17.9375    4.8856 H   0  0  0  0  0  0  0  0  0  0  0  0
  -23.8669  -18.9376    7.5526 H   0  0  0  0  0  0  0  0  0  0  0  0
  -22.5038  -19.5379    6.5627 H   0  0  0  0  0  0  0  0  0  0  0  0
  -22.4427  -17.8699    7.1537 H   0  0  0  0  0  0  0  0  0  0  0  0
  -25.3052  -17.2100    6.6681 H   0  0  0  0  0  0  0  0  0  0  0  0
  -25.3409  -16.8912    4.9417 H   0  0  0  0  0  0  0  0  0  0  0  0
  -22.8868  -15.8669    6.4311 H   0  0  0  0  0  0  0  0  0  0  0  0
  -23.5440  -15.4003    4.8853 H   0  0  0  0  0  0  0  0  0  0  0  0
  -24.9986  -13.0786    4.9754 H   0  0  0  0  0  0  0  0  0  0  0  0
  -26.1150  -11.8227    6.8332 H   0  0  0  0  0  0  0  0  0  0  0  0
  -26.6871  -12.0629    9.5363 H   0  0  0  0  0  0  0  0  0  0  0  0
  -26.3408  -13.6032   11.4625 H   0  0  0  0  0  0  0  0  0  0  0  0
  -25.1275  -15.7125   11.1735 H   0  0  0  0  0  0  0  0  0  0  0  0
  1  2  1  0
  2  3  1  0
  2  4  1  0
  4  5  1  0
  5  6  1  0
  6  7  2  0
  7  8  1  0
  8  9  1  0
  9 10  2  0
 10 11  1  0
 11 12  2  0
 12 13  1  0
 13 14  1  0
 13 15  2  0
 15  6  1  0
 15  9  1  0
  1 16  1  0
  1 17  1  0
  1 18  1  0
  2 19  1  0
  3 20  1  0
  3 21  1  0
  3 22  1  0
  4 23  1  0
  4 24  1  0
  5 25  1  0
  5 26  1  0
  7 27  1  0
  8 28  1  0
 10 29  1  0
 11 30  1  0
 12 31  1  0
M  CHG  2   2   1  14  -1
M  END
>  <input_smiles>  (1) 
CN(C)CCc1c[nH]c2cccc(O)c12

>  <prot_variant_index>  (1) 
1

>  <SMILES>  (1) 
C[NH+](C)CCc1c[nH]c2cccc([O-])c12

>  <ALIGN_METHOD>  (1) 
MCS

>  <ALIGN_STATUS>  (1) 
OK

$$$$
