Psilocin
     RDKit          3D

 31 32  0  0  0  0  0  0  0  0999 V2000
  -23.1040  -18.6803    5.5674 C   0  0  0  0  0  0  0  0  0  0  0  0
  -24.0066  -17.9501    4.6829 N   0  0  0  0  0  0  0  0  0  0  0  0
  -23.3330  -17.5616    3.4472 C   0  0  0  0  0  0  0  0  0  0  0  0
  -24.6774  -16.8202    5.3466 C   0  0  0  0  0  0  0  0  0  0  0  0
  -23.7848  -15.6580    5.8224 C   0  0  0  0  0  0  0  0  0  0  0  0
  -24.5642  -14.6110    6.5616 C   0  0  0  0  0  0  0  0  0  0  0  0
  -25.0508  -13.4488    5.9918 C   0  0  0  0  0  0  0  0  0  0  0  0
  -25.6892  -12.7255    6.9580 N   0  0  0  0  0  0  0  0  0  0  0  0
  -25.6333  -13.3864    8.1615 C   0  0  0  0  0  0  0  0  0  0  0  0
  -26.1446  -13.0035    9.4097 C   0  0  0  0  0  0  0  0  0  0  0  0
  -25.9489  -13.8651   10.4910 C   0  0  0  0  0  0  0  0  0  0  0  0
  -25.2726  -15.0686   10.3275 C   0  0  0  0  0  0  0  0  0  0  0  0
  -24.7761  -15.4361    9.0740 C   0  0  0  0  0  0  0  0  0  0  0  0
  -24.1406  -16.6582    9.0192 O   0  0  0  0  0  0  0  0  0  0  0  0
  -24.9420  -14.5860    7.9522 C   0  0  0  0  0  0  0  0  0  0  0  0
  -23.6232  -18.9914    6.4805 H   0  0  0  0  0  0  0  0  0  0  0  0
  -22.7534  -19.5970    5.0800 H   0  0  0  0  0  0  0  0  0  0  0  0
  -22.2250  -18.0926    5.8521 H   0  0  0  0  0  0  0  0  0  0  0  0
  -22.9873  -18.4504    2.9073 H   0  0  0  0  0  0  0  0  0  0  0  0
  -24.0231  -17.0379    2.7766 H   0  0  0  0  0  0  0  0  0  0  0  0
  -22.4657  -16.9169    3.6254 H   0  0  0  0  0  0  0  0  0  0  0  0
  -25.4409  -16.4238    4.6629 H   0  0  0  0  0  0  0  0  0  0  0  0
  -25.2504  -17.2153    6.1959 H   0  0  0  0  0  0  0  0  0  0  0  0
  -23.2997  -15.1882    4.9574 H   0  0  0  0  0  0  0  0  0  0  0  0
  -22.9726  -16.0163    6.4636 H   0  0  0  0  0  0  0  0  0  0  0  0
  -24.9890  -13.0754    4.9778 H   0  0  0  0  0  0  0  0  0  0  0  0
  -26.1345  -11.8292    6.8181 H   0  0  0  0  0  0  0  0  0  0  0  0
  -26.6755  -12.0658    9.5402 H   0  0  0  0  0  0  0  0  0  0  0  0
  -26.3322  -13.5937   11.4716 H   0  0  0  0  0  0  0  0  0  0  0  0
  -25.1318  -15.7331   11.1758 H   0  0  0  0  0  0  0  0  0  0  0  0
  -23.9758  -16.8549    8.0864 H   0  0  0  0  0  0  0  0  0  0  0  0
  1  2  1  0
  2  3  1  0
  2  4  1  0
  4  5  1  0
  5  6  1  0
  6  7  2  0
  7  8  1  0
  8  9  1  0
  9 10  2  0
 10 11  1  0
 11 12  2  0
 12 13  1  0
 13 14  1  0
 13 15  2  0
 15  6  1  0
 15  9  1  0
  1 16  1  0
  1 17  1  0
  1 18  1  0
  3 19  1  0
  3 20  1  0
  3 21  1  0
  4 22  1  0
  4 23  1  0
  5 24  1  0
  5 25  1  0
  7 26  1  0
  8 27  1  0
 10 28  1  0
 11 29  1  0
 12 30  1  0
 14 31  1  0
M  END
>  <SMILES>  (1) 
CN(C)CCc1c[nH]c2cccc(O)c12

>  <ALIGN_METHOD>  (1) 
MCS

>  <ALIGN_STATUS>  (1) 
OK

$$$$
