Psilocin__p2
     RDKit          3D

 30 31  0  0  0  0  0  0  0  0999 V2000
  -21.6586  -14.4020    4.0993 C   0  0  0  0  0  0  0  0  0  0  0  0
  -21.3739  -14.6534    5.5031 N   0  0  0  0  0  0  0  0  0  0  0  0
  -21.3888  -13.4192    6.2824 C   0  0  0  0  0  0  0  0  0  0  0  0
  -22.2562  -15.6858    6.1067 C   0  0  0  0  0  0  0  0  0  0  0  0
  -23.7787  -15.6591    5.8458 C   0  0  0  0  0  0  0  0  0  0  0  0
  -24.5457  -14.5922    6.5657 C   0  0  0  0  0  0  0  0  0  0  0  0
  -25.0605  -13.4452    5.9895 C   0  0  0  0  0  0  0  0  0  0  0  0
  -25.6841  -12.7281    6.9658 N   0  0  0  0  0  0  0  0  0  0  0  0
  -25.6216  -13.3840    8.1713 C   0  0  0  0  0  0  0  0  0  0  0  0
  -26.1416  -12.9930    9.4101 C   0  0  0  0  0  0  0  0  0  0  0  0
  -25.9543  -13.8552   10.4840 C   0  0  0  0  0  0  0  0  0  0  0  0
  -25.2788  -15.0615   10.3129 C   0  0  0  0  0  0  0  0  0  0  0  0
  -24.7478  -15.4771    9.0742 C   0  0  0  0  0  0  0  0  0  0  0  0
  -24.1395  -16.5767    8.8740 O   0  0  0  0  0  0  0  0  0  0  0  0
  -24.9247  -14.5846    7.9673 C   0  0  0  0  0  0  0  0  0  0  0  0
  -20.8800  -13.7651    3.6642 H   0  0  0  0  0  0  0  0  0  0  0  0
  -21.6510  -15.3365    3.5274 H   0  0  0  0  0  0  0  0  0  0  0  0
  -22.6209  -13.9040    3.9410 H   0  0  0  0  0  0  0  0  0  0  0  0
  -20.6036  -12.7433    5.9244 H   0  0  0  0  0  0  0  0  0  0  0  0
  -21.1670  -13.6150    7.3373 H   0  0  0  0  0  0  0  0  0  0  0  0
  -22.3374  -12.8813    6.2199 H   0  0  0  0  0  0  0  0  0  0  0  0
  -22.0502  -15.7416    7.1819 H   0  0  0  0  0  0  0  0  0  0  0  0
  -21.8957  -16.6444    5.7088 H   0  0  0  0  0  0  0  0  0  0  0  0
  -24.1945  -16.6362    6.1229 H   0  0  0  0  0  0  0  0  0  0  0  0
  -23.9725  -15.5841    4.7686 H   0  0  0  0  0  0  0  0  0  0  0  0
  -25.0181  -13.0855    4.9723 H   0  0  0  0  0  0  0  0  0  0  0  0
  -26.1433  -11.8414    6.8327 H   0  0  0  0  0  0  0  0  0  0  0  0
  -26.6732  -12.0582    9.5332 H   0  0  0  0  0  0  0  0  0  0  0  0
  -26.3390  -13.5978   11.4647 H   0  0  0  0  0  0  0  0  0  0  0  0
  -25.1521  -15.7243   11.1672 H   0  0  0  0  0  0  0  0  0  0  0  0
  1  2  1  0
  2  3  1  0
  2  4  1  0
  4  5  1  0
  5  6  1  0
  6  7  2  0
  7  8  1  0
  8  9  1  0
  9 10  2  0
 10 11  1  0
 11 12  2  0
 12 13  1  0
 13 14  1  0
 13 15  2  0
 15  6  1  0
 15  9  1  0
  1 16  1  0
  1 17  1  0
  1 18  1  0
  3 19  1  0
  3 20  1  0
  3 21  1  0
  4 22  1  0
  4 23  1  0
  5 24  1  0
  5 25  1  0
  7 26  1  0
  8 27  1  0
 10 28  1  0
 11 29  1  0
 12 30  1  0
M  CHG  1  14  -1
M  END
>  <input_smiles>  (1) 
CN(C)CCc1c[nH]c2cccc(O)c12

>  <prot_variant_index>  (1) 
2

>  <SMILES>  (1) 
CN(C)CCc1c[nH]c2cccc([O-])c12

>  <ALIGN_METHOD>  (1) 
MCS

>  <ALIGN_STATUS>  (1) 
OK

$$$$
