Psilocin__p3
     RDKit          3D

 32 33  0  0  0  0  0  0  0  0999 V2000
  -24.7548  -19.0882    6.4569 C   0  0  0  0  0  0  0  0  0  0  0  0
  -25.1903  -17.6580    6.4805 N   0  0  0  0  0  0  0  0  0  0  0  0
  -26.6797  -17.5161    6.5933 C   0  0  0  0  0  0  0  0  0  0  0  0
  -24.6036  -16.8316    5.3487 C   0  0  0  0  0  0  0  0  0  0  0  0
  -23.7604  -15.6675    5.8793 C   0  0  0  0  0  0  0  0  0  0  0  0
  -24.5641  -14.6124    6.5725 C   0  0  0  0  0  0  0  0  0  0  0  0
  -25.0564  -13.4597    5.9906 C   0  0  0  0  0  0  0  0  0  0  0  0
  -25.6912  -12.7232    6.9550 N   0  0  0  0  0  0  0  0  0  0  0  0
  -25.6424  -13.3822    8.1607 C   0  0  0  0  0  0  0  0  0  0  0  0
  -26.1519  -13.0055    9.4094 C   0  0  0  0  0  0  0  0  0  0  0  0
  -25.9471  -13.8732   10.4863 C   0  0  0  0  0  0  0  0  0  0  0  0
  -25.2638  -15.0756   10.3224 C   0  0  0  0  0  0  0  0  0  0  0  0
  -24.7646  -15.4307    9.0657 C   0  0  0  0  0  0  0  0  0  0  0  0
  -24.1311  -16.6449    8.9074 O   0  0  0  0  0  0  0  0  0  0  0  0
  -24.9455  -14.5743    7.9569 C   0  0  0  0  0  0  0  0  0  0  0  0
  -25.1555  -19.5825    7.3459 H   0  0  0  0  0  0  0  0  0  0  0  0
  -25.1367  -19.5546    5.5449 H   0  0  0  0  0  0  0  0  0  0  0  0
  -23.6620  -19.1105    6.4820 H   0  0  0  0  0  0  0  0  0  0  0  0
  -24.8113  -17.2641    7.3640 H   0  0  0  0  0  0  0  0  0  0  0  0
  -27.0006  -18.0275    7.5047 H   0  0  0  0  0  0  0  0  0  0  0  0
  -26.9275  -16.4543    6.6565 H   0  0  0  0  0  0  0  0  0  0  0  0
  -27.1386  -17.9693    5.7105 H   0  0  0  0  0  0  0  0  0  0  0  0
  -23.9741  -17.4955    4.7456 H   0  0  0  0  0  0  0  0  0  0  0  0
  -25.4282  -16.4829    4.7164 H   0  0  0  0  0  0  0  0  0  0  0  0
  -23.2383  -15.2083    5.0298 H   0  0  0  0  0  0  0  0  0  0  0  0
  -22.9746  -16.0417    6.5462 H   0  0  0  0  0  0  0  0  0  0  0  0
  -24.9856  -13.0801    4.9787 H   0  0  0  0  0  0  0  0  0  0  0  0
  -26.1199  -11.8170    6.8129 H   0  0  0  0  0  0  0  0  0  0  0  0
  -26.6832  -12.0678    9.5476 H   0  0  0  0  0  0  0  0  0  0  0  0
  -26.3305  -13.6003   11.4684 H   0  0  0  0  0  0  0  0  0  0  0  0
  -25.1385  -15.7261   11.1838 H   0  0  0  0  0  0  0  0  0  0  0  0
  -23.7804  -16.8799    9.7907 H   0  0  0  0  0  0  0  0  0  0  0  0
  1  2  1  0
  2  3  1  0
  2  4  1  0
  4  5  1  0
  5  6  1  0
  6  7  2  0
  7  8  1  0
  8  9  1  0
  9 10  2  0
 10 11  1  0
 11 12  2  0
 12 13  1  0
 13 14  1  0
 13 15  2  0
 15  6  1  0
 15  9  1  0
  1 16  1  0
  1 17  1  0
  1 18  1  0
  2 19  1  0
  3 20  1  0
  3 21  1  0
  3 22  1  0
  4 23  1  0
  4 24  1  0
  5 25  1  0
  5 26  1  0
  7 27  1  0
  8 28  1  0
 10 29  1  0
 11 30  1  0
 12 31  1  0
 14 32  1  0
M  CHG  1   2   1
M  END
>  <input_smiles>  (1) 
CN(C)CCc1c[nH]c2cccc(O)c12

>  <prot_variant_index>  (1) 
3

>  <SMILES>  (1) 
C[NH+](C)CCc1c[nH]c2cccc(O)c12

>  <ALIGN_METHOD>  (1) 
MCS

>  <ALIGN_STATUS>  (1) 
OK

$$$$
