Psilocin__p0
     RDKit          3D

 31 32  0  0  0  0  0  0  0  0999 V2000
  -23.5520  -17.5820    3.4393 C   0  0  0  0  0  0  0  0  0  0  0  0
  -24.0070  -17.9756    4.7736 N   0  0  0  0  0  0  0  0  0  0  0  0
  -24.8846  -19.1444    4.6718 C   0  0  0  0  0  0  0  0  0  0  0  0
  -24.7193  -16.8749    5.4602 C   0  0  0  0  0  0  0  0  0  0  0  0
  -23.8113  -15.7013    5.8699 C   0  0  0  0  0  0  0  0  0  0  0  0
  -24.5730  -14.6142    6.5717 C   0  0  0  0  0  0  0  0  0  0  0  0
  -25.0513  -13.4538    5.9926 C   0  0  0  0  0  0  0  0  0  0  0  0
  -25.6846  -12.7204    6.9573 N   0  0  0  0  0  0  0  0  0  0  0  0
  -25.6362  -13.3763    8.1646 C   0  0  0  0  0  0  0  0  0  0  0  0
  -26.1497  -13.0010    9.4126 C   0  0  0  0  0  0  0  0  0  0  0  0
  -25.9512  -13.8728   10.4870 C   0  0  0  0  0  0  0  0  0  0  0  0
  -25.2657  -15.0744   10.3207 C   0  0  0  0  0  0  0  0  0  0  0  0
  -24.7605  -15.4302    9.0653 C   0  0  0  0  0  0  0  0  0  0  0  0
  -24.0894  -16.6177    8.9117 O   0  0  0  0  0  0  0  0  0  0  0  0
  -24.9430  -14.5719    7.9586 C   0  0  0  0  0  0  0  0  0  0  0  0
  -23.0607  -18.4238    2.9376 H   0  0  0  0  0  0  0  0  0  0  0  0
  -24.3776  -17.2413    2.8041 H   0  0  0  0  0  0  0  0  0  0  0  0
  -22.8023  -16.7870    3.4928 H   0  0  0  0  0  0  0  0  0  0  0  0
  -24.3583  -19.9821    4.2005 H   0  0  0  0  0  0  0  0  0  0  0  0
  -25.7891  -18.9333    4.0897 H   0  0  0  0  0  0  0  0  0  0  0  0
  -25.1862  -19.4890    5.6673 H   0  0  0  0  0  0  0  0  0  0  0  0
  -25.1796  -17.2717    6.3749 H   0  0  0  0  0  0  0  0  0  0  0  0
  -25.5465  -16.5086    4.8365 H   0  0  0  0  0  0  0  0  0  0  0  0
  -23.3308  -15.2638    4.9869 H   0  0  0  0  0  0  0  0  0  0  0  0
  -23.0006  -16.0604    6.5152 H   0  0  0  0  0  0  0  0  0  0  0  0
  -24.9893  -13.0905    4.9755 H   0  0  0  0  0  0  0  0  0  0  0  0
  -26.1253  -11.8233    6.8107 H   0  0  0  0  0  0  0  0  0  0  0  0
  -26.6841  -12.0662    9.5476 H   0  0  0  0  0  0  0  0  0  0  0  0
  -26.3389  -13.6071   11.4679 H   0  0  0  0  0  0  0  0  0  0  0  0
  -25.1321  -15.7261   11.1787 H   0  0  0  0  0  0  0  0  0  0  0  0
  -24.0411  -17.0626    9.7720 H   0  0  0  0  0  0  0  0  0  0  0  0
  1  2  1  0
  2  3  1  0
  2  4  1  0
  4  5  1  0
  5  6  1  0
  6  7  2  0
  7  8  1  0
  8  9  1  0
  9 10  2  0
 10 11  1  0
 11 12  2  0
 12 13  1  0
 13 14  1  0
 13 15  2  0
 15  6  1  0
 15  9  1  0
  1 16  1  0
  1 17  1  0
  1 18  1  0
  3 19  1  0
  3 20  1  0
  3 21  1  0
  4 22  1  0
  4 23  1  0
  5 24  1  0
  5 25  1  0
  7 26  1  0
  8 27  1  0
 10 28  1  0
 11 29  1  0
 12 30  1  0
 14 31  1  0
M  END
>  <input_smiles>  (1) 
CN(C)CCc1c[nH]c2cccc(O)c12

>  <prot_variant_index>  (1) 
0

>  <SMILES>  (1) 
CN(C)CCc1c[nH]c2cccc(O)c12

>  <ALIGN_METHOD>  (1) 
MCS

>  <ALIGN_STATUS>  (1) 
OK

$$$$
