Serotonin
     RDKit          3D

 25 26  0  0  0  0  0  0  0  0999 V2000
  -24.8548  -16.5885    4.4195 N   0  0  0  0  0  0  0  0  0  0  0  0
  -24.0243  -16.6956    5.6205 C   0  0  0  0  0  0  0  0  0  0  0  0
  -23.3911  -15.3613    6.0426 C   0  0  0  0  0  0  0  0  0  0  0  0
  -24.3572  -14.4053    6.6724 C   0  0  0  0  0  0  0  0  0  0  0  0
  -25.0597  -13.4073    6.0252 C   0  0  0  0  0  0  0  0  0  0  0  0
  -25.8370  -12.7591    6.9448 N   0  0  0  0  0  0  0  0  0  0  0  0
  -25.6500  -13.3019    8.1941 C   0  0  0  0  0  0  0  0  0  0  0  0
  -26.2273  -12.9554    9.4221 C   0  0  0  0  0  0  0  0  0  0  0  0
  -25.8482  -13.6938   10.5460 C   0  0  0  0  0  0  0  0  0  0  0  0
  -24.9324  -14.7312   10.4339 C   0  0  0  0  0  0  0  0  0  0  0  0
  -24.6082  -15.4110   11.5738 O   0  0  0  0  0  0  0  0  0  0  0  0
  -24.3604  -15.0730    9.2061 C   0  0  0  0  0  0  0  0  0  0  0  0
  -24.7270  -14.3401    8.0563 C   0  0  0  0  0  0  0  0  0  0  0  0
  -24.2976  -16.2371    3.6432 H   0  0  0  0  0  0  0  0  0  0  0  0
  -25.1856  -17.5135    4.1513 H   0  0  0  0  0  0  0  0  0  0  0  0
  -23.2221  -17.4130    5.4129 H   0  0  0  0  0  0  0  0  0  0  0  0
  -24.6281  -17.1091    6.4359 H   0  0  0  0  0  0  0  0  0  0  0  0
  -22.5872  -15.5699    6.7600 H   0  0  0  0  0  0  0  0  0  0  0  0
  -22.9059  -14.8858    5.1804 H   0  0  0  0  0  0  0  0  0  0  0  0
  -25.0813  -13.1185    4.9829 H   0  0  0  0  0  0  0  0  0  0  0  0
  -26.4631  -11.9930    6.7409 H   0  0  0  0  0  0  0  0  0  0  0  0
  -26.9441  -12.1455    9.5059 H   0  0  0  0  0  0  0  0  0  0  0  0
  -26.2743  -13.4552   11.5168 H   0  0  0  0  0  0  0  0  0  0  0  0
  -23.9682  -16.1041   11.3446 H   0  0  0  0  0  0  0  0  0  0  0  0
  -23.6470  -15.8840    9.1225 H   0  0  0  0  0  0  0  0  0  0  0  0
  1  2  1  0
  2  3  1  0
  3  4  1  0
  4  5  2  0
  5  6  1  0
  6  7  1  0
  7  8  2  0
  8  9  1  0
  9 10  2  0
 10 11  1  0
 10 12  1  0
 12 13  2  0
 13  4  1  0
 13  7  1  0
  1 14  1  0
  1 15  1  0
  2 16  1  0
  2 17  1  0
  3 18  1  0
  3 19  1  0
  5 20  1  0
  6 21  1  0
  8 22  1  0
  9 23  1  0
 11 24  1  0
 12 25  1  0
M  END
>  <SMILES>  (1) 
NCCc1c[nH]c2ccc(O)cc12

>  <ALIGN_METHOD>  (1) 
MCS

>  <ALIGN_STATUS>  (1) 
OK

$$$$
