Serotonin__p0
     RDKit          3D

 26 27  0  0  0  0  0  0  0  0999 V2000
  -21.9497  -15.6296    7.4267 N   0  0  0  0  0  0  0  0  0  0  0  0
  -22.3554  -15.6726    6.0010 C   0  0  0  0  0  0  0  0  0  0  0  0
  -23.8763  -15.7345    5.8617 C   0  0  0  0  0  0  0  0  0  0  0  0
  -24.5828  -14.6207    6.5683 C   0  0  0  0  0  0  0  0  0  0  0  0
  -25.0388  -13.4509    5.9940 C   0  0  0  0  0  0  0  0  0  0  0  0
  -25.6773  -12.7153    6.9577 N   0  0  0  0  0  0  0  0  0  0  0  0
  -25.6257  -13.3727    8.1648 C   0  0  0  0  0  0  0  0  0  0  0  0
  -26.1418  -13.0002    9.4117 C   0  0  0  0  0  0  0  0  0  0  0  0
  -25.9523  -13.8767   10.4847 C   0  0  0  0  0  0  0  0  0  0  0  0
  -25.2674  -15.0785   10.3218 C   0  0  0  0  0  0  0  0  0  0  0  0
  -24.7600  -15.4298    9.0676 C   0  0  0  0  0  0  0  0  0  0  0  0
  -24.0395  -16.5996    8.9339 O   0  0  0  0  0  0  0  0  0  0  0  0
  -24.9422  -14.5717    7.9588 C   0  0  0  0  0  0  0  0  0  0  0  0
  -22.5201  -16.2880    7.9900 H   0  0  0  0  0  0  0  0  0  0  0  0
  -20.9575  -15.8325    7.5798 H   0  0  0  0  0  0  0  0  0  0  0  0
  -22.1613  -14.7061    7.8299 H   0  0  0  0  0  0  0  0  0  0  0  0
  -21.9346  -14.7790    5.5298 H   0  0  0  0  0  0  0  0  0  0  0  0
  -21.8913  -16.5628    5.5660 H   0  0  0  0  0  0  0  0  0  0  0  0
  -24.2443  -16.6967    6.2386 H   0  0  0  0  0  0  0  0  0  0  0  0
  -24.1322  -15.7121    4.7949 H   0  0  0  0  0  0  0  0  0  0  0  0
  -24.9979  -13.0866    4.9745 H   0  0  0  0  0  0  0  0  0  0  0  0
  -26.1376  -11.8259    6.8073 H   0  0  0  0  0  0  0  0  0  0  0  0
  -26.6807  -12.0664    9.5489 H   0  0  0  0  0  0  0  0  0  0  0  0
  -26.3486  -13.6103   11.4637 H   0  0  0  0  0  0  0  0  0  0  0  0
  -25.1317  -15.7225   11.1869 H   0  0  0  0  0  0  0  0  0  0  0  0
  -24.3740  -17.1966    9.6362 H   0  0  0  0  0  0  0  0  0  0  0  0
  1  2  1  0
  2  3  1  0
  3  4  1  0
  4  5  2  0
  5  6  1  0
  6  7  1  0
  7  8  2  0
  8  9  1  0
  9 10  2  0
 10 11  1  0
 11 12  1  0
 11 13  2  0
 13  4  1  0
 13  7  1  0
  1 14  1  0
  1 15  1  0
  1 16  1  0
  2 17  1  0
  2 18  1  0
  3 19  1  0
  3 20  1  0
  5 21  1  0
  6 22  1  0
  8 23  1  0
  9 24  1  0
 10 25  1  0
 12 26  1  0
M  CHG  1   1   1
M  END
>  <input_smiles>  (1) 
NCCc1c[nH]c2cccc(O)c12

>  <prot_variant_index>  (1) 
0

>  <SMILES>  (1) 
[NH3+]CCc1c[nH]c2cccc(O)c12

>  <ALIGN_METHOD>  (1) 
MCS

>  <ALIGN_STATUS>  (1) 
OK

$$$$
