Serotonin__p1
     RDKit          3D

 25 26  0  0  0  0  0  0  0  0999 V2000
  -24.5922  -17.8028    6.7482 N   0  0  0  0  0  0  0  0  0  0  0  0
  -24.5733  -16.9354    5.5677 C   0  0  0  0  0  0  0  0  0  0  0  0
  -23.7815  -15.6531    5.8275 C   0  0  0  0  0  0  0  0  0  0  0  0
  -24.5682  -14.6080    6.5592 C   0  0  0  0  0  0  0  0  0  0  0  0
  -25.0604  -13.4487    5.9893 C   0  0  0  0  0  0  0  0  0  0  0  0
  -25.6870  -12.7286    6.9646 N   0  0  0  0  0  0  0  0  0  0  0  0
  -25.6346  -13.3934    8.1657 C   0  0  0  0  0  0  0  0  0  0  0  0
  -26.1519  -13.0021    9.4048 C   0  0  0  0  0  0  0  0  0  0  0  0
  -25.9549  -13.8590   10.4814 C   0  0  0  0  0  0  0  0  0  0  0  0
  -25.2726  -15.0617   10.3147 C   0  0  0  0  0  0  0  0  0  0  0  0
  -24.7485  -15.4760    9.0747 C   0  0  0  0  0  0  0  0  0  0  0  0
  -24.1439  -16.5765    8.8669 O   0  0  0  0  0  0  0  0  0  0  0  0
  -24.9367  -14.5916    7.9631 C   0  0  0  0  0  0  0  0  0  0  0  0
  -24.8152  -17.2012    7.5930 H   0  0  0  0  0  0  0  0  0  0  0  0
  -23.6653  -18.0844    7.0884 H   0  0  0  0  0  0  0  0  0  0  0  0
  -25.2593  -18.5687    6.7904 H   0  0  0  0  0  0  0  0  0  0  0  0
  -24.1060  -17.5224    4.7715 H   0  0  0  0  0  0  0  0  0  0  0  0
  -25.6146  -16.7331    5.2972 H   0  0  0  0  0  0  0  0  0  0  0  0
  -22.8449  -15.8642    6.3573 H   0  0  0  0  0  0  0  0  0  0  0  0
  -23.4864  -15.2400    4.8536 H   0  0  0  0  0  0  0  0  0  0  0  0
  -24.9983  -13.0656    4.9799 H   0  0  0  0  0  0  0  0  0  0  0  0
  -26.1226  -11.8266    6.8381 H   0  0  0  0  0  0  0  0  0  0  0  0
  -26.6805  -12.0645    9.5315 H   0  0  0  0  0  0  0  0  0  0  0  0
  -26.3326  -13.5925   11.4639 H   0  0  0  0  0  0  0  0  0  0  0  0
  -25.1359  -15.7097   11.1798 H   0  0  0  0  0  0  0  0  0  0  0  0
  1  2  1  0
  2  3  1  0
  3  4  1  0
  4  5  2  0
  5  6  1  0
  6  7  1  0
  7  8  2  0
  8  9  1  0
  9 10  2  0
 10 11  1  0
 11 12  1  0
 11 13  2  0
 13  4  1  0
 13  7  1  0
  1 14  1  0
  1 15  1  0
  1 16  1  0
  2 17  1  0
  2 18  1  0
  3 19  1  0
  3 20  1  0
  5 21  1  0
  6 22  1  0
  8 23  1  0
  9 24  1  0
 10 25  1  0
M  CHG  2   1   1  12  -1
M  END
>  <input_smiles>  (1) 
NCCc1c[nH]c2cccc(O)c12

>  <prot_variant_index>  (1) 
1

>  <SMILES>  (1) 
[NH3+]CCc1c[nH]c2cccc([O-])c12

>  <ALIGN_METHOD>  (1) 
MCS

>  <ALIGN_STATUS>  (1) 
OK

$$$$
