Serotonin__p2
     RDKit          3D

 25 26  0  0  0  0  0  0  0  0999 V2000
  -21.9014  -15.8881    7.2863 N   0  0  0  0  0  0  0  0  0  0  0  0
  -22.3973  -15.7266    5.9132 C   0  0  0  0  0  0  0  0  0  0  0  0
  -23.9281  -15.7523    5.8309 C   0  0  0  0  0  0  0  0  0  0  0  0
  -24.5974  -14.6282    6.5621 C   0  0  0  0  0  0  0  0  0  0  0  0
  -25.0545  -13.4556    5.9905 C   0  0  0  0  0  0  0  0  0  0  0  0
  -25.6661  -12.7121    6.9614 N   0  0  0  0  0  0  0  0  0  0  0  0
  -25.6222  -13.3721    8.1662 C   0  0  0  0  0  0  0  0  0  0  0  0
  -26.1448  -12.9989    9.4123 C   0  0  0  0  0  0  0  0  0  0  0  0
  -25.9633  -13.8747   10.4869 C   0  0  0  0  0  0  0  0  0  0  0  0
  -25.2689  -15.0696   10.3253 C   0  0  0  0  0  0  0  0  0  0  0  0
  -24.7410  -15.4140    9.0797 C   0  0  0  0  0  0  0  0  0  0  0  0
  -24.0165  -16.5858    9.0246 O   0  0  0  0  0  0  0  0  0  0  0  0
  -24.9309  -14.5701    7.9601 C   0  0  0  0  0  0  0  0  0  0  0  0
  -20.8866  -16.0089    7.2513 H   0  0  0  0  0  0  0  0  0  0  0  0
  -22.0317  -14.9929    7.7722 H   0  0  0  0  0  0  0  0  0  0  0  0
  -22.0005  -16.5473    5.3055 H   0  0  0  0  0  0  0  0  0  0  0  0
  -22.0045  -14.7918    5.4974 H   0  0  0  0  0  0  0  0  0  0  0  0
  -24.2172  -15.7107    4.7725 H   0  0  0  0  0  0  0  0  0  0  0  0
  -24.3085  -16.7112    6.2049 H   0  0  0  0  0  0  0  0  0  0  0  0
  -25.0162  -13.1000    4.9693 H   0  0  0  0  0  0  0  0  0  0  0  0
  -26.1098  -11.8157    6.8170 H   0  0  0  0  0  0  0  0  0  0  0  0
  -26.6831  -12.0658    9.5445 H   0  0  0  0  0  0  0  0  0  0  0  0
  -26.3645  -13.6164   11.4640 H   0  0  0  0  0  0  0  0  0  0  0  0
  -25.1222  -15.7350   11.1716 H   0  0  0  0  0  0  0  0  0  0  0  0
  -23.3696  -16.4968    8.2899 H   0  0  0  0  0  0  0  0  0  0  0  0
  1  2  1  0
  2  3  1  0
  3  4  1  0
  4  5  2  0
  5  6  1  0
  6  7  1  0
  7  8  2  0
  8  9  1  0
  9 10  2  0
 10 11  1  0
 11 12  1  0
 11 13  2  0
 13  4  1  0
 13  7  1  0
  1 14  1  0
  1 15  1  0
  2 16  1  0
  2 17  1  0
  3 18  1  0
  3 19  1  0
  5 20  1  0
  6 21  1  0
  8 22  1  0
  9 23  1  0
 10 24  1  0
 12 25  1  0
M  END
>  <input_smiles>  (1) 
NCCc1c[nH]c2cccc(O)c12

>  <prot_variant_index>  (1) 
2

>  <SMILES>  (1) 
NCCc1c[nH]c2cccc(O)c12

>  <ALIGN_METHOD>  (1) 
MCS

>  <ALIGN_STATUS>  (1) 
OK

$$$$
