Serotonin__p3
     RDKit          3D

 24 25  0  0  0  0  0  0  0  0999 V2000
  -21.5844  -16.7207    5.4661 N   0  0  0  0  0  0  0  0  0  0  0  0
  -22.3088  -15.5953    6.0895 C   0  0  0  0  0  0  0  0  0  0  0  0
  -23.8192  -15.6819    5.8416 C   0  0  0  0  0  0  0  0  0  0  0  0
  -24.5757  -14.6063    6.5597 C   0  0  0  0  0  0  0  0  0  0  0  0
  -25.0553  -13.4424    5.9897 C   0  0  0  0  0  0  0  0  0  0  0  0
  -25.6839  -12.7275    6.9650 N   0  0  0  0  0  0  0  0  0  0  0  0
  -25.6303  -13.3879    8.1694 C   0  0  0  0  0  0  0  0  0  0  0  0
  -26.1486  -12.9964    9.4087 C   0  0  0  0  0  0  0  0  0  0  0  0
  -25.9566  -13.8570   10.4835 C   0  0  0  0  0  0  0  0  0  0  0  0
  -25.2721  -15.0590   10.3148 C   0  0  0  0  0  0  0  0  0  0  0  0
  -24.7412  -15.4749    9.0762 C   0  0  0  0  0  0  0  0  0  0  0  0
  -24.1104  -16.5633    8.8808 O   0  0  0  0  0  0  0  0  0  0  0  0
  -24.9375  -14.5905    7.9654 C   0  0  0  0  0  0  0  0  0  0  0  0
  -22.0048  -17.5651    5.8662 H   0  0  0  0  0  0  0  0  0  0  0  0
  -20.6392  -16.7068    5.8459 H   0  0  0  0  0  0  0  0  0  0  0  0
  -21.9153  -14.6585    5.6782 H   0  0  0  0  0  0  0  0  0  0  0  0
  -22.0838  -15.5885    7.1608 H   0  0  0  0  0  0  0  0  0  0  0  0
  -24.0097  -15.5987    4.7631 H   0  0  0  0  0  0  0  0  0  0  0  0
  -24.2068  -16.6651    6.1333 H   0  0  0  0  0  0  0  0  0  0  0  0
  -24.9977  -13.0756    4.9754 H   0  0  0  0  0  0  0  0  0  0  0  0
  -26.1312  -11.8345    6.8340 H   0  0  0  0  0  0  0  0  0  0  0  0
  -26.6796  -12.0614    9.5323 H   0  0  0  0  0  0  0  0  0  0  0  0
  -26.3397  -13.5988   11.4645 H   0  0  0  0  0  0  0  0  0  0  0  0
  -25.1354  -15.7159   11.1721 H   0  0  0  0  0  0  0  0  0  0  0  0
  1  2  1  0
  2  3  1  0
  3  4  1  0
  4  5  2  0
  5  6  1  0
  6  7  1  0
  7  8  2  0
  8  9  1  0
  9 10  2  0
 10 11  1  0
 11 12  1  0
 11 13  2  0
 13  4  1  0
 13  7  1  0
  1 14  1  0
  1 15  1  0
  2 16  1  0
  2 17  1  0
  3 18  1  0
  3 19  1  0
  5 20  1  0
  6 21  1  0
  8 22  1  0
  9 23  1  0
 10 24  1  0
M  CHG  1  12  -1
M  END
>  <input_smiles>  (1) 
NCCc1c[nH]c2cccc(O)c12

>  <prot_variant_index>  (1) 
3

>  <SMILES>  (1) 
NCCc1c[nH]c2cccc([O-])c12

>  <ALIGN_METHOD>  (1) 
MCS

>  <ALIGN_STATUS>  (1) 
OK

$$$$
