Tryptamine_like
     RDKit          3D

 24 25  0  0  0  0  0  0  0  0999 V2000
  -21.3905  -15.3716    7.3335 N   0  0  0  0  0  0  0  0  0  0  0  0
  -22.0113  -15.0591    6.0451 C   0  0  0  0  0  0  0  0  0  0  0  0
  -23.5013  -15.4261    5.9822 C   0  0  0  0  0  0  0  0  0  0  0  0
  -24.4041  -14.4228    6.6335 C   0  0  0  0  0  0  0  0  0  0  0  0
  -25.0187  -13.3543    6.0070 C   0  0  0  0  0  0  0  0  0  0  0  0
  -25.7721  -12.6862    6.9335 N   0  0  0  0  0  0  0  0  0  0  0  0
  -25.6738  -13.2987    8.1599 C   0  0  0  0  0  0  0  0  0  0  0  0
  -26.2721  -12.9701    9.3827 C   0  0  0  0  0  0  0  0  0  0  0  0
  -25.9841  -13.7809   10.4842 C   0  0  0  0  0  0  0  0  0  0  0  0
  -25.1302  -14.8743   10.3650 C   0  0  0  0  0  0  0  0  0  0  0  0
  -24.5419  -15.1881    9.1342 C   0  0  0  0  0  0  0  0  0  0  0  0
  -24.8167  -14.3891    8.0053 C   0  0  0  0  0  0  0  0  0  0  0  0
  -20.4016  -15.1308    7.3003 H   0  0  0  0  0  0  0  0  0  0  0  0
  -21.4434  -16.3730    7.5086 H   0  0  0  0  0  0  0  0  0  0  0  0
  -21.4783  -15.6259    5.2731 H   0  0  0  0  0  0  0  0  0  0  0  0
  -21.8665  -13.9954    5.8255 H   0  0  0  0  0  0  0  0  0  0  0  0
  -23.6700  -16.4209    6.4130 H   0  0  0  0  0  0  0  0  0  0  0  0
  -23.7876  -15.5079    4.9250 H   0  0  0  0  0  0  0  0  0  0  0  0
  -24.9828  -13.0153    4.9805 H   0  0  0  0  0  0  0  0  0  0  0  0
  -26.3269  -11.8625    6.7495 H   0  0  0  0  0  0  0  0  0  0  0  0
  -26.9346  -12.1166    9.4793 H   0  0  0  0  0  0  0  0  0  0  0  0
  -26.4306  -13.5514   11.4487 H   0  0  0  0  0  0  0  0  0  0  0  0
  -24.9127  -15.4893   11.2342 H   0  0  0  0  0  0  0  0  0  0  0  0
  -23.8687  -16.0356    9.0527 H   0  0  0  0  0  0  0  0  0  0  0  0
  1  2  1  0
  2  3  1  0
  3  4  1  0
  4  5  2  0
  5  6  1  0
  6  7  1  0
  7  8  2  0
  8  9  1  0
  9 10  2  0
 10 11  1  0
 11 12  2  0
 12  4  1  0
 12  7  1  0
  1 13  1  0
  1 14  1  0
  2 15  1  0
  2 16  1  0
  3 17  1  0
  3 18  1  0
  5 19  1  0
  6 20  1  0
  8 21  1  0
  9 22  1  0
 10 23  1  0
 11 24  1  0
M  END
>  <SMILES>  (1) 
NCCc1c[nH]c2ccccc12

>  <ALIGN_METHOD>  (1) 
MCS

>  <ALIGN_STATUS>  (1) 
OK

$$$$
