/home/aaron_m_kushner/5ht-platform-starter/data/custom_ligands/LSD_from_5TVN.pdb
     RDKit          3D

 49 52  0  0  1  0  0  0  0  0999 V2000
  -25.9760  -12.8170    6.9610 N   0  0  0  0  0  0  0  0  0  0  0  0
  -21.8640  -20.0230   10.8660 N   0  0  0  0  0  0  0  0  0  0  0  0
  -26.2210  -12.9890    9.3950 C   0  0  0  0  0  0  0  0  0  0  0  0
  -25.8660  -13.7760   10.4900 C   0  0  0  0  0  0  0  0  0  0  0  0
  -24.6890  -15.2200    9.0070 C   0  0  0  0  0  0  0  0  0  0  0  0
  -24.7790  -14.6110    6.7450 C   0  0  0  0  0  0  0  0  0  0  0  0
  -25.3380  -13.5970    6.0820 C   0  0  0  0  0  0  0  0  0  0  0  0
  -23.3290  -17.0780    9.7390 C   0  0  0  0  0  0  0  0  0  0  0  0
  -23.0070  -18.8370    8.1620 C   0  0  0  0  0  0  0  0  0  0  0  0
  -23.9880  -15.6910    6.3520 C   0  0  0  0  0  0  0  0  0  0  0  0
  -20.5340  -20.0170   10.2380 C   0  0  0  0  0  0  0  0  0  0  0  0
  -22.7720  -22.2560   11.3810 C   0  0  0  0  0  0  0  0  0  0  0  0
  -22.9350  -17.8090    7.1160 N   0  0  0  0  0  0  0  0  0  0  0  0
  -23.2260  -18.4270    5.8140 C   0  0  0  0  0  0  0  0  0  0  0  0
  -23.9920  -16.8260    7.3920 C   0  0  1  0  0  0  0  0  0  0  0  0
  -25.0800  -14.4300    8.0190 C   0  0  0  0  0  0  0  0  0  0  0  0
  -25.8120  -13.3390    8.1770 C   0  0  0  0  0  0  0  0  0  0  0  0
  -25.0860  -14.9140   10.3020 C   0  0  0  0  0  0  0  0  0  0  0  0
  -23.9390  -16.3500    8.7140 C   0  0  0  0  0  0  0  0  0  0  0  0
  -22.5970  -18.2470    9.5090 C   0  0  2  0  0  0  0  0  0  0  0  0
  -22.8570  -19.1710   10.5330 C   0  0  0  0  0  0  0  0  0  0  0  0
  -23.9590  -19.1900   11.0810 O   0  0  0  0  0  0  0  0  0  0  0  0
  -22.0400  -21.0270   11.9280 C   0  0  0  0  0  0  0  0  0  0  0  0
  -19.4950  -19.6690   11.3030 C   0  0  0  0  0  0  0  0  0  0  0  0
  -26.7960  -12.1423    9.5274 H   0  0  0  0  0  0  0  0  0  0  0  0
  -26.1807  -13.5156   11.4377 H   0  0  0  0  0  0  0  0  0  0  0  0
  -25.2867  -13.4411    5.0631 H   0  0  0  0  0  0  0  0  0  0  0  0
  -23.4229  -16.7378   10.7088 H   0  0  0  0  0  0  0  0  0  0  0  0
  -22.3472  -19.6417    7.9129 H   0  0  0  0  0  0  0  0  0  0  0  0
  -24.0124  -19.1970    8.2296 H   0  0  0  0  0  0  0  0  0  0  0  0
  -22.9825  -15.3505    6.2179 H   0  0  0  0  0  0  0  0  0  0  0  0
  -24.3932  -16.0797    5.4412 H   0  0  0  0  0  0  0  0  0  0  0  0
  -20.5076  -19.2870    9.4562 H   0  0  0  0  0  0  0  0  0  0  0  0
  -20.3220  -20.9791    9.8204 H   0  0  0  0  0  0  0  0  0  0  0  0
  -22.8928  -22.9765   12.1628 H   0  0  0  0  0  0  0  0  0  0  0  0
  -22.2011  -22.6861   10.5847 H   0  0  0  0  0  0  0  0  0  0  0  0
  -23.7335  -21.9641   11.0133 H   0  0  0  0  0  0  0  0  0  0  0  0
  -23.1752  -17.6830    5.0467 H   0  0  0  0  0  0  0  0  0  0  0  0
  -24.2072  -18.8534    5.8329 H   0  0  0  0  0  0  0  0  0  0  0  0
  -22.5074  -19.1944    5.6148 H   0  0  0  0  0  0  0  0  0  0  0  0
  -24.9314  -17.3293    7.2970 H   0  0  0  0  0  0  0  0  0  0  0  0
  -26.3600  -12.5811    8.6967 H   0  0  0  0  0  0  0  0  0  0  0  0
  -24.8121  -15.5102   11.0986 H   0  0  0  0  0  0  0  0  0  0  0  0
  -21.5507  -18.0235    9.4964 H   0  0  0  0  0  0  0  0  0  0  0  0
  -22.6125  -20.6009   12.7253 H   0  0  0  0  0  0  0  0  0  0  0  0
  -21.0776  -21.3262   12.2873 H   0  0  0  0  0  0  0  0  0  0  0  0
  -19.7149  -18.7061   11.7146 H   0  0  0  0  0  0  0  0  0  0  0  0
  -18.5213  -19.6535   10.8597 H   0  0  0  0  0  0  0  0  0  0  0  0
  -19.5213  -20.4037   12.0804 H   0  0  0  0  0  0  0  0  0  0  0  0
  1 17  1  0
  2 23  1  0
  3  4  2  0
  3 25  1  0
  4 26  1  0
  5 18  2  0
  6 16  2  0
  7  6  1  0
  7  1  2  0
  7 27  1  0
  8 28  1  0
  9 20  1  0
  9 29  1  0
  9 30  1  0
 10  6  1  0
 10 15  1  0
 10 31  1  0
 10 32  1  0
 11  2  1  0
 11 24  1  0
 11 33  1  0
 11 34  1  0
 12 23  1  0
 12 35  1  0
 12 36  1  0
 12 37  1  0
 13 15  1  0
 13  9  1  0
 14 13  1  0
 14 38  1  0
 14 39  1  0
 14 40  1  0
 15 19  1  0
 15 41  1  1
 16 17  1  0
 16  5  1  0
 17  3  1  0
 17 42  1  0
 18  4  1  0
 18 43  1  0
 19  5  1  0
 19  8  2  0
 20  8  1  0
 20 21  1  0
 20 44  1  6
 21  2  1  0
 21 22  2  0
 23 45  1  0
 23 46  1  0
 24 47  1  0
 24 48  1  0
 24 49  1  0
M  END
>  <MODEL>  (1) 
       1

>  <SMILES>  (1) 
CCN(CC)C(=O)[C@@H]1C=C2C3=CC=CC4N=CC(=C34)C[C@H]2N(C)C1

>  <ALIGN_METHOD>  (1) 
MCS

>  <ALIGN_STATUS>  (1) 
OK

$$$$
