Psilocin
     RDKit          3D

 31 32  0  0  0  0  0  0  0  0999 V2000
    3.1240   -1.5784   -0.3269 C   0  0  0  0  0  0  0  0  0  0  0  0
    2.9463   -0.3292   -1.0605 N   0  0  0  0  0  0  0  0  0  0  0  0
    3.8942    0.6856   -0.6097 C   0  0  0  0  0  0  0  0  0  0  0  0
    1.5541    0.1493   -1.0584 C   0  0  0  0  0  0  0  0  0  0  0  0
    0.9576    0.5605    0.3014 C   0  0  0  0  0  0  0  0  0  0  0  0
   -0.4888    0.9430    0.1930 C   0  0  0  0  0  0  0  0  0  0  0  0
   -0.9487    2.2415    0.0731 C   0  0  0  0  0  0  0  0  0  0  0  0
   -2.3128    2.2160    0.0196 N   0  0  0  0  0  0  0  0  0  0  0  0
   -2.7678    0.9222    0.1042 C   0  0  0  0  0  0  0  0  0  0  0  0
   -4.0851    0.4418    0.0999 C   0  0  0  0  0  0  0  0  0  0  0  0
   -4.2808   -0.9371    0.2015 C   0  0  0  0  0  0  0  0  0  0  0  0
   -3.1979   -1.8035    0.2967 C   0  0  0  0  0  0  0  0  0  0  0  0
   -1.8920   -1.3063    0.2925 C   0  0  0  0  0  0  0  0  0  0  0  0
   -0.8931   -2.2532    0.3705 O   0  0  0  0  0  0  0  0  0  0  0  0
   -1.6483    0.0870    0.2032 C   0  0  0  0  0  0  0  0  0  0  0  0
    2.4276   -2.3430   -0.6884 H   0  0  0  0  0  0  0  0  0  0  0  0
    4.1331   -1.9739   -0.4885 H   0  0  0  0  0  0  0  0  0  0  0  0
    2.9775   -1.4590    0.7517 H   0  0  0  0  0  0  0  0  0  0  0  0
    4.9226    0.3463   -0.7776 H   0  0  0  0  0  0  0  0  0  0  0  0
    3.7737    1.6116   -1.1827 H   0  0  0  0  0  0  0  0  0  0  0  0
    3.7859    0.9194    0.4548 H   0  0  0  0  0  0  0  0  0  0  0  0
    1.4821    1.0008   -1.7491 H   0  0  0  0  0  0  0  0  0  0  0  0
    0.9263   -0.6269   -1.5157 H   0  0  0  0  0  0  0  0  0  0  0  0
    1.5164    1.4140    0.7057 H   0  0  0  0  0  0  0  0  0  0  0  0
    1.0595   -0.2416    1.0399 H   0  0  0  0  0  0  0  0  0  0  0  0
   -0.4154    3.1822    0.0275 H   0  0  0  0  0  0  0  0  0  0  0  0
   -2.9093    3.0276   -0.0628 H   0  0  0  0  0  0  0  0  0  0  0  0
   -4.9328    1.1154    0.0230 H   0  0  0  0  0  0  0  0  0  0  0  0
   -5.2913   -1.3385    0.2031 H   0  0  0  0  0  0  0  0  0  0  0  0
   -3.3634   -2.8751    0.3695 H   0  0  0  0  0  0  0  0  0  0  0  0
   -0.0534   -1.7986    0.2151 H   0  0  0  0  0  0  0  0  0  0  0  0
  1  2  1  0
  2  3  1  0
  2  4  1  0
  4  5  1  0
  5  6  1  0
  6  7  2  0
  7  8  1  0
  8  9  1  0
  9 10  2  0
 10 11  1  0
 11 12  2  0
 12 13  1  0
 13 14  1  0
 13 15  2  0
 15  6  1  0
 15  9  1  0
  1 16  1  0
  1 17  1  0
  1 18  1  0
  3 19  1  0
  3 20  1  0
  3 21  1  0
  4 22  1  0
  4 23  1  0
  5 24  1  0
  5 25  1  0
  7 26  1  0
  8 27  1  0
 10 28  1  0
 11 29  1  0
 12 30  1  0
 14 31  1  0
M  END
$$$$
