Serotonin
     RDKit          3D

 25 26  0  0  0  0  0  0  0  0999 V2000
    3.4372   -0.7148    0.5932 N   0  0  0  0  0  0  0  0  0  0  0  0
    2.6520    0.5204    0.5566 C   0  0  0  0  0  0  0  0  0  0  0  0
    1.8569    0.6969   -0.7458 C   0  0  0  0  0  0  0  0  0  0  0  0
    0.6543   -0.1906   -0.8457 C   0  0  0  0  0  0  0  0  0  0  0  0
    0.6011   -1.4306   -1.4523 C   0  0  0  0  0  0  0  0  0  0  0  0
   -0.6699   -1.9195   -1.3269 N   0  0  0  0  0  0  0  0  0  0  0  0
   -1.4639   -1.0170   -0.6595 C   0  0  0  0  0  0  0  0  0  0  0  0
   -2.8192   -1.0925   -0.3147 C   0  0  0  0  0  0  0  0  0  0  0  0
   -3.3715   -0.0114    0.3768 C   0  0  0  0  0  0  0  0  0  0  0  0
   -2.5926    1.0902    0.7045 C   0  0  0  0  0  0  0  0  0  0  0  0
   -3.1981    2.1106    1.3818 O   0  0  0  0  0  0  0  0  0  0  0  0
   -1.2409    1.1596    0.3587 C   0  0  0  0  0  0  0  0  0  0  0  0
   -0.6607    0.0797   -0.3418 C   0  0  0  0  0  0  0  0  0  0  0  0
    4.0905   -0.7332   -0.1875 H   0  0  0  0  0  0  0  0  0  0  0  0
    3.9940   -0.7385    1.4455 H   0  0  0  0  0  0  0  0  0  0  0  0
    3.3446    1.3635    0.6602 H   0  0  0  0  0  0  0  0  0  0  0  0
    1.9807    0.5421    1.4223 H   0  0  0  0  0  0  0  0  0  0  0  0
    1.5274    1.7416   -0.8127 H   0  0  0  0  0  0  0  0  0  0  0  0
    2.5121    0.5344   -1.6114 H   0  0  0  0  0  0  0  0  0  0  0  0
    1.3689   -2.0102   -1.9471 H   0  0  0  0  0  0  0  0  0  0  0  0
   -0.9851   -2.8157   -1.6702 H   0  0  0  0  0  0  0  0  0  0  0  0
   -3.4245   -1.9556   -0.5705 H   0  0  0  0  0  0  0  0  0  0  0  0
   -4.4199   -0.0327    0.6621 H   0  0  0  0  0  0  0  0  0  0  0  0
   -2.5375    2.8030    1.5455 H   0  0  0  0  0  0  0  0  0  0  0  0
   -0.6361    2.0204    0.6172 H   0  0  0  0  0  0  0  0  0  0  0  0
  1  2  1  0
  2  3  1  0
  3  4  1  0
  4  5  2  0
  5  6  1  0
  6  7  1  0
  7  8  2  0
  8  9  1  0
  9 10  2  0
 10 11  1  0
 10 12  1  0
 12 13  2  0
 13  4  1  0
 13  7  1  0
  1 14  1  0
  1 15  1  0
  2 16  1  0
  2 17  1  0
  3 18  1  0
  3 19  1  0
  5 20  1  0
  6 21  1  0
  8 22  1  0
  9 23  1  0
 11 24  1  0
 12 25  1  0
M  END
>  <SMILES>  (1) 
NCCc1c[nH]c2ccc(O)cc12

$$$$
LSD
     RDKit          3D

 49 52  0  0  1  0  0  0  0  0999 V2000
  -25.9760  -12.8170    6.9610 N   0  0  0  0  0  0  0  0  0  0  0  0
  -21.8640  -20.0230   10.8660 N   0  0  0  0  0  0  0  0  0  0  0  0
  -26.2210  -12.9890    9.3950 C   0  0  0  0  0  0  0  0  0  0  0  0
  -25.8660  -13.7760   10.4900 C   0  0  0  0  0  0  0  0  0  0  0  0
  -24.6890  -15.2200    9.0070 C   0  0  0  0  0  0  0  0  0  0  0  0
  -24.7790  -14.6110    6.7450 C   0  0  0  0  0  0  0  0  0  0  0  0
  -25.3380  -13.5970    6.0820 C   0  0  0  0  0  0  0  0  0  0  0  0
  -23.3290  -17.0780    9.7390 C   0  0  0  0  0  0  0  0  0  0  0  0
  -23.0070  -18.8370    8.1620 C   0  0  0  0  0  0  0  0  0  0  0  0
  -23.9880  -15.6910    6.3520 C   0  0  0  0  0  0  0  0  0  0  0  0
  -20.5340  -20.0170   10.2380 C   0  0  0  0  0  0  0  0  0  0  0  0
  -22.7720  -22.2560   11.3810 C   0  0  0  0  0  0  0  0  0  0  0  0
  -22.9350  -17.8090    7.1160 N   0  0  0  0  0  0  0  0  0  0  0  0
  -23.2260  -18.4270    5.8140 C   0  0  0  0  0  0  0  0  0  0  0  0
  -23.9920  -16.8260    7.3920 C   0  0  1  0  0  0  0  0  0  0  0  0
  -25.0800  -14.4300    8.0190 C   0  0  0  0  0  0  0  0  0  0  0  0
  -25.8120  -13.3390    8.1770 C   0  0  0  0  0  0  0  0  0  0  0  0
  -25.0860  -14.9140   10.3020 C   0  0  0  0  0  0  0  0  0  0  0  0
  -23.9390  -16.3500    8.7140 C   0  0  0  0  0  0  0  0  0  0  0  0
  -22.5970  -18.2470    9.5090 C   0  0  2  0  0  0  0  0  0  0  0  0
  -22.8570  -19.1710   10.5330 C   0  0  0  0  0  0  0  0  0  0  0  0
  -23.9590  -19.1900   11.0810 O   0  0  0  0  0  0  0  0  0  0  0  0
  -22.0400  -21.0270   11.9280 C   0  0  0  0  0  0  0  0  0  0  0  0
  -19.4950  -19.6690   11.3030 C   0  0  0  0  0  0  0  0  0  0  0  0
  -26.7960  -12.1423    9.5274 H   0  0  0  0  0  0  0  0  0  0  0  0
  -26.1807  -13.5156   11.4377 H   0  0  0  0  0  0  0  0  0  0  0  0
  -25.2867  -13.4411    5.0631 H   0  0  0  0  0  0  0  0  0  0  0  0
  -23.4229  -16.7378   10.7088 H   0  0  0  0  0  0  0  0  0  0  0  0
  -22.3472  -19.6417    7.9129 H   0  0  0  0  0  0  0  0  0  0  0  0
  -24.0124  -19.1970    8.2296 H   0  0  0  0  0  0  0  0  0  0  0  0
  -22.9825  -15.3505    6.2179 H   0  0  0  0  0  0  0  0  0  0  0  0
  -24.3932  -16.0797    5.4412 H   0  0  0  0  0  0  0  0  0  0  0  0
  -20.5076  -19.2870    9.4562 H   0  0  0  0  0  0  0  0  0  0  0  0
  -20.3220  -20.9791    9.8204 H   0  0  0  0  0  0  0  0  0  0  0  0
  -22.8928  -22.9765   12.1628 H   0  0  0  0  0  0  0  0  0  0  0  0
  -22.2011  -22.6861   10.5847 H   0  0  0  0  0  0  0  0  0  0  0  0
  -23.7335  -21.9641   11.0133 H   0  0  0  0  0  0  0  0  0  0  0  0
  -23.1752  -17.6830    5.0467 H   0  0  0  0  0  0  0  0  0  0  0  0
  -24.2072  -18.8534    5.8329 H   0  0  0  0  0  0  0  0  0  0  0  0
  -22.5074  -19.1944    5.6148 H   0  0  0  0  0  0  0  0  0  0  0  0
  -24.9314  -17.3293    7.2970 H   0  0  0  0  0  0  0  0  0  0  0  0
  -26.3600  -12.5811    8.6967 H   0  0  0  0  0  0  0  0  0  0  0  0
  -24.8121  -15.5102   11.0986 H   0  0  0  0  0  0  0  0  0  0  0  0
  -21.5507  -18.0235    9.4964 H   0  0  0  0  0  0  0  0  0  0  0  0
  -22.6125  -20.6009   12.7253 H   0  0  0  0  0  0  0  0  0  0  0  0
  -21.0776  -21.3262   12.2873 H   0  0  0  0  0  0  0  0  0  0  0  0
  -19.7149  -18.7061   11.7146 H   0  0  0  0  0  0  0  0  0  0  0  0
  -18.5213  -19.6535   10.8597 H   0  0  0  0  0  0  0  0  0  0  0  0
  -19.5213  -20.4037   12.0804 H   0  0  0  0  0  0  0  0  0  0  0  0
  1 17  1  0
  2 23  1  0
  3  4  2  0
  3 25  1  0
  4 26  1  0
  5 18  2  0
  6 16  2  0
  7  6  1  0
  7  1  2  0
  7 27  1  0
  8 28  1  0
  9 20  1  0
  9 29  1  0
  9 30  1  0
 10  6  1  0
 10 15  1  0
 10 31  1  0
 10 32  1  0
 11  2  1  0
 11 24  1  0
 11 33  1  0
 11 34  1  0
 12 23  1  0
 12 35  1  0
 12 36  1  0
 12 37  1  0
 13 15  1  0
 13  9  1  0
 14 13  1  0
 14 38  1  0
 14 39  1  0
 14 40  1  0
 15 19  1  0
 15 41  1  1
 16 17  1  0
 16  5  1  0
 17  3  1  0
 17 42  1  0
 18  4  1  0
 18 43  1  0
 19  5  1  0
 19  8  2  0
 20  8  1  0
 20 21  1  0
 20 44  1  6
 21  2  1  0
 21 22  2  0
 23 45  1  0
 23 46  1  0
 24 47  1  0
 24 48  1  0
 24 49  1  0
M  END
>  <MODEL>  (2) 
       1

>  <SMILES>  (2) 
CCN(CC)C(=O)[C@@H]1C=C2C3=CC=CC4N=CC(=C34)C[C@H]2N(C)C1

$$$$
Psilocin
     RDKit          3D

 31 32  0  0  0  0  0  0  0  0999 V2000
    3.1240   -1.5784   -0.3269 C   0  0  0  0  0  0  0  0  0  0  0  0
    2.9463   -0.3292   -1.0605 N   0  0  0  0  0  0  0  0  0  0  0  0
    3.8942    0.6856   -0.6097 C   0  0  0  0  0  0  0  0  0  0  0  0
    1.5541    0.1493   -1.0584 C   0  0  0  0  0  0  0  0  0  0  0  0
    0.9576    0.5605    0.3014 C   0  0  0  0  0  0  0  0  0  0  0  0
   -0.4888    0.9430    0.1930 C   0  0  0  0  0  0  0  0  0  0  0  0
   -0.9487    2.2415    0.0731 C   0  0  0  0  0  0  0  0  0  0  0  0
   -2.3128    2.2160    0.0196 N   0  0  0  0  0  0  0  0  0  0  0  0
   -2.7678    0.9222    0.1042 C   0  0  0  0  0  0  0  0  0  0  0  0
   -4.0851    0.4418    0.0999 C   0  0  0  0  0  0  0  0  0  0  0  0
   -4.2808   -0.9371    0.2015 C   0  0  0  0  0  0  0  0  0  0  0  0
   -3.1979   -1.8035    0.2967 C   0  0  0  0  0  0  0  0  0  0  0  0
   -1.8920   -1.3063    0.2925 C   0  0  0  0  0  0  0  0  0  0  0  0
   -0.8931   -2.2532    0.3705 O   0  0  0  0  0  0  0  0  0  0  0  0
   -1.6483    0.0870    0.2032 C   0  0  0  0  0  0  0  0  0  0  0  0
    2.4276   -2.3430   -0.6884 H   0  0  0  0  0  0  0  0  0  0  0  0
    4.1331   -1.9739   -0.4885 H   0  0  0  0  0  0  0  0  0  0  0  0
    2.9775   -1.4590    0.7517 H   0  0  0  0  0  0  0  0  0  0  0  0
    4.9226    0.3463   -0.7776 H   0  0  0  0  0  0  0  0  0  0  0  0
    3.7737    1.6116   -1.1827 H   0  0  0  0  0  0  0  0  0  0  0  0
    3.7859    0.9194    0.4548 H   0  0  0  0  0  0  0  0  0  0  0  0
    1.4821    1.0008   -1.7491 H   0  0  0  0  0  0  0  0  0  0  0  0
    0.9263   -0.6269   -1.5157 H   0  0  0  0  0  0  0  0  0  0  0  0
    1.5164    1.4140    0.7057 H   0  0  0  0  0  0  0  0  0  0  0  0
    1.0595   -0.2416    1.0399 H   0  0  0  0  0  0  0  0  0  0  0  0
   -0.4154    3.1822    0.0275 H   0  0  0  0  0  0  0  0  0  0  0  0
   -2.9093    3.0276   -0.0628 H   0  0  0  0  0  0  0  0  0  0  0  0
   -4.9328    1.1154    0.0230 H   0  0  0  0  0  0  0  0  0  0  0  0
   -5.2913   -1.3385    0.2031 H   0  0  0  0  0  0  0  0  0  0  0  0
   -3.3634   -2.8751    0.3695 H   0  0  0  0  0  0  0  0  0  0  0  0
   -0.0534   -1.7986    0.2151 H   0  0  0  0  0  0  0  0  0  0  0  0
  1  2  1  0
  2  3  1  0
  2  4  1  0
  4  5  1  0
  5  6  1  0
  6  7  2  0
  7  8  1  0
  8  9  1  0
  9 10  2  0
 10 11  1  0
 11 12  2  0
 12 13  1  0
 13 14  1  0
 13 15  2  0
 15  6  1  0
 15  9  1  0
  1 16  1  0
  1 17  1  0
  1 18  1  0
  3 19  1  0
  3 20  1  0
  3 21  1  0
  4 22  1  0
  4 23  1  0
  5 24  1  0
  5 25  1  0
  7 26  1  0
  8 27  1  0
 10 28  1  0
 11 29  1  0
 12 30  1  0
 14 31  1  0
M  END
>  <SMILES>  (3) 
CN(C)CCc1c[nH]c2cccc(O)c12

$$$$
