Serotonin
     RDKit          3D

 26 27  0  0  0  0  0  0  0  0999 V2000
   -3.6901   -1.1054    0.3319 N   0  0  0  0  0  0  0  0  0  0  0  0
   -2.4082   -0.4108    0.6279 C   0  0  0  0  0  0  0  0  0  0  0  0
   -1.8438    0.2206   -0.6430 C   0  0  0  0  0  0  0  0  0  0  0  0
   -0.5398    0.8938   -0.3836 C   0  0  0  0  0  0  0  0  0  0  0  0
   -0.3257    2.2505   -0.2431 C   0  0  0  0  0  0  0  0  0  0  0  0
    1.0104    2.4547   -0.0114 N   0  0  0  0  0  0  0  0  0  0  0  0
    1.6748    1.2509    0.0163 C   0  0  0  0  0  0  0  0  0  0  0  0
    3.0321    0.9761    0.2284 C   0  0  0  0  0  0  0  0  0  0  0  0
    3.4394   -0.3614    0.1932 C   0  0  0  0  0  0  0  0  0  0  0  0
    2.5148   -1.3690   -0.0503 C   0  0  0  0  0  0  0  0  0  0  0  0
    2.8874   -2.6816   -0.0899 O   0  0  0  0  0  0  0  0  0  0  0  0
    1.1654   -1.0871   -0.2642 C   0  0  0  0  0  0  0  0  0  0  0  0
    0.7311    0.2529   -0.2262 C   0  0  0  0  0  0  0  0  0  0  0  0
   -4.3995   -0.4577   -0.0353 H   0  0  0  0  0  0  0  0  0  0  0  0
   -4.0757   -1.5330    1.1844 H   0  0  0  0  0  0  0  0  0  0  0  0
   -3.5618   -1.8596   -0.3560 H   0  0  0  0  0  0  0  0  0  0  0  0
   -2.6265    0.3404    1.3938 H   0  0  0  0  0  0  0  0  0  0  0  0
   -1.7369   -1.1652    1.0498 H   0  0  0  0  0  0  0  0  0  0  0  0
   -1.7102   -0.5463   -1.4164 H   0  0  0  0  0  0  0  0  0  0  0  0
   -2.5623    0.9453   -1.0467 H   0  0  0  0  0  0  0  0  0  0  0  0
   -0.9988    3.0970   -0.2977 H   0  0  0  0  0  0  0  0  0  0  0  0
    1.4530    3.3558    0.1176 H   0  0  0  0  0  0  0  0  0  0  0  0
    3.7507    1.7694    0.4123 H   0  0  0  0  0  0  0  0  0  0  0  0
    4.4886   -0.5925    0.3567 H   0  0  0  0  0  0  0  0  0  0  0  0
    3.8524   -2.7351    0.0225 H   0  0  0  0  0  0  0  0  0  0  0  0
    0.4792   -1.9024   -0.4643 H   0  0  0  0  0  0  0  0  0  0  0  0
  1  2  1  0
  2  3  1  0
  3  4  1  0
  4  5  2  0
  5  6  1  0
  6  7  1  0
  7  8  2  0
  8  9  1  0
  9 10  2  0
 10 11  1  0
 10 12  1  0
 12 13  2  0
 13  4  1  0
 13  7  1  0
  1 14  1  0
  1 15  1  0
  1 16  1  0
  2 17  1  0
  2 18  1  0
  3 19  1  0
  3 20  1  0
  5 21  1  0
  6 22  1  0
  8 23  1  0
  9 24  1  0
 11 25  1  0
 12 26  1  0
M  CHG  1   1   1
M  END
>  <SMILES>  (1) 
[NH3+]CCc1c[nH]c2ccc(O)cc12

$$$$
Psilocin
     RDKit          3D

 31 32  0  0  0  0  0  0  0  0999 V2000
    2.9649    0.4317   -0.8089 N   0  0  0  0  0  3  0  0  0  0  0  0
    2.9071    1.8689   -0.5615 C   0  0  0  0  0  0  0  0  0  0  0  0
    3.9796   -0.2058    0.0251 C   0  0  0  0  0  0  0  0  0  0  0  0
    1.6509   -0.2249   -0.7111 C   0  0  0  0  0  0  0  0  0  0  0  0
    0.9711   -0.2273    0.6715 C   0  0  0  0  0  0  0  0  0  0  0  0
   -0.3968   -0.8416    0.6289 C   0  0  0  0  0  0  0  0  0  0  0  0
   -0.6757   -2.1558    0.9562 C   0  0  0  0  0  0  0  0  0  0  0  0
   -2.0190   -2.3607    0.8236 N   0  0  0  0  0  0  0  0  0  0  0  0
   -2.6385   -1.2040    0.4157 C   0  0  0  0  0  0  0  0  0  0  0  0
   -3.9977   -0.9637    0.1689 C   0  0  0  0  0  0  0  0  0  0  0  0
   -4.3738    0.3176   -0.2395 C   0  0  0  0  0  0  0  0  0  0  0  0
   -3.4236    1.3193   -0.4017 C   0  0  0  0  0  0  0  0  0  0  0  0
   -2.0727    1.0587   -0.1575 C   0  0  0  0  0  0  0  0  0  0  0  0
   -1.2136    2.1160   -0.3691 O   0  0  0  0  0  0  0  0  0  0  0  0
   -1.6488   -0.2243    0.2701 C   0  0  0  0  0  0  0  0  0  0  0  0
    3.8702    2.3347   -0.7990 H   0  0  0  0  0  0  0  0  0  0  0  0
    2.6643    2.1088    0.4790 H   0  0  0  0  0  0  0  0  0  0  0  0
    2.1625    2.3445   -1.2094 H   0  0  0  0  0  0  0  0  0  0  0  0
    4.9694    0.2087   -0.1971 H   0  0  0  0  0  0  0  0  0  0  0  0
    3.7902   -0.0708    1.0954 H   0  0  0  0  0  0  0  0  0  0  0  0
    4.0365   -1.2795   -0.1848 H   0  0  0  0  0  0  0  0  0  0  0  0
    0.9826    0.2388   -1.4487 H   0  0  0  0  0  0  0  0  0  0  0  0
    1.7588   -1.2629   -1.0549 H   0  0  0  0  0  0  0  0  0  0  0  0
    0.8938    0.7861    1.0791 H   0  0  0  0  0  0  0  0  0  0  0  0
    1.5866   -0.7915    1.3835 H   0  0  0  0  0  0  0  0  0  0  0  0
   -0.0272   -2.9601    1.2785 H   0  0  0  0  0  0  0  0  0  0  0  0
   -2.4975   -3.2324    1.0044 H   0  0  0  0  0  0  0  0  0  0  0  0
   -4.7418   -1.7444    0.2921 H   0  0  0  0  0  0  0  0  0  0  0  0
   -5.4210    0.5340   -0.4359 H   0  0  0  0  0  0  0  0  0  0  0  0
   -3.7284    2.3108   -0.7255 H   0  0  0  0  0  0  0  0  0  0  0  0
   -0.3121    1.7709   -0.3063 H   0  0  0  0  0  0  0  0  0  0  0  0
  1  2  1  0
  1  3  1  0
  1  4  1  0
  4  5  1  0
  5  6  1  0
  6  7  2  0
  7  8  1  0
  8  9  1  0
  9 10  2  0
 10 11  1  0
 11 12  2  0
 12 13  1  0
 13 14  1  0
 13 15  2  0
 15  6  1  0
 15  9  1  0
  2 16  1  0
  2 17  1  0
  2 18  1  0
  3 19  1  0
  3 20  1  0
  3 21  1  0
  4 22  1  0
  4 23  1  0
  5 24  1  0
  5 25  1  0
  7 26  1  0
  8 27  1  0
 10 28  1  0
 11 29  1  0
 12 30  1  0
 14 31  1  0
M  CHG  1   1   1
M  RAD  1   1   2
M  END
>  <SMILES>  (2) 
C[N+](C)CCc1c[nH]c2cccc(O)c12

$$$$
LSD
     RDKit          3D

 49 52  0  0  1  0  0  0  0  0999 V2000
  -25.9760  -12.8170    6.9610 N   0  0  0  0  0  0  0  0  0  0  0  0
  -21.8640  -20.0230   10.8660 N   0  0  0  0  0  0  0  0  0  0  0  0
  -26.2210  -12.9890    9.3950 C   0  0  0  0  0  0  0  0  0  0  0  0
  -25.8660  -13.7760   10.4900 C   0  0  0  0  0  0  0  0  0  0  0  0
  -24.6890  -15.2200    9.0070 C   0  0  0  0  0  0  0  0  0  0  0  0
  -24.7790  -14.6110    6.7450 C   0  0  0  0  0  0  0  0  0  0  0  0
  -25.3380  -13.5970    6.0820 C   0  0  0  0  0  0  0  0  0  0  0  0
  -23.3290  -17.0780    9.7390 C   0  0  0  0  0  0  0  0  0  0  0  0
  -23.0070  -18.8370    8.1620 C   0  0  0  0  0  0  0  0  0  0  0  0
  -23.9880  -15.6910    6.3520 C   0  0  0  0  0  0  0  0  0  0  0  0
  -20.5340  -20.0170   10.2380 C   0  0  0  0  0  0  0  0  0  0  0  0
  -22.7720  -22.2560   11.3810 C   0  0  0  0  0  0  0  0  0  0  0  0
  -22.9350  -17.8090    7.1160 N   0  0  0  0  0  0  0  0  0  0  0  0
  -23.2260  -18.4270    5.8140 C   0  0  0  0  0  0  0  0  0  0  0  0
  -23.9920  -16.8260    7.3920 C   0  0  1  0  0  0  0  0  0  0  0  0
  -25.0800  -14.4300    8.0190 C   0  0  0  0  0  0  0  0  0  0  0  0
  -25.8120  -13.3390    8.1770 C   0  0  0  0  0  0  0  0  0  0  0  0
  -25.0860  -14.9140   10.3020 C   0  0  0  0  0  0  0  0  0  0  0  0
  -23.9390  -16.3500    8.7140 C   0  0  0  0  0  0  0  0  0  0  0  0
  -22.5970  -18.2470    9.5090 C   0  0  2  0  0  0  0  0  0  0  0  0
  -22.8570  -19.1710   10.5330 C   0  0  0  0  0  0  0  0  0  0  0  0
  -23.9590  -19.1900   11.0810 O   0  0  0  0  0  0  0  0  0  0  0  0
  -22.0400  -21.0270   11.9280 C   0  0  0  0  0  0  0  0  0  0  0  0
  -19.4950  -19.6690   11.3030 C   0  0  0  0  0  0  0  0  0  0  0  0
  -26.7960  -12.1423    9.5274 H   0  0  0  0  0  0  0  0  0  0  0  0
  -26.1807  -13.5156   11.4377 H   0  0  0  0  0  0  0  0  0  0  0  0
  -25.2867  -13.4411    5.0631 H   0  0  0  0  0  0  0  0  0  0  0  0
  -23.4229  -16.7378   10.7088 H   0  0  0  0  0  0  0  0  0  0  0  0
  -22.3472  -19.6417    7.9129 H   0  0  0  0  0  0  0  0  0  0  0  0
  -24.0124  -19.1970    8.2296 H   0  0  0  0  0  0  0  0  0  0  0  0
  -22.9825  -15.3505    6.2179 H   0  0  0  0  0  0  0  0  0  0  0  0
  -24.3932  -16.0797    5.4412 H   0  0  0  0  0  0  0  0  0  0  0  0
  -20.5076  -19.2870    9.4562 H   0  0  0  0  0  0  0  0  0  0  0  0
  -20.3220  -20.9791    9.8204 H   0  0  0  0  0  0  0  0  0  0  0  0
  -22.8928  -22.9765   12.1628 H   0  0  0  0  0  0  0  0  0  0  0  0
  -22.2011  -22.6861   10.5847 H   0  0  0  0  0  0  0  0  0  0  0  0
  -23.7335  -21.9641   11.0133 H   0  0  0  0  0  0  0  0  0  0  0  0
  -23.1752  -17.6830    5.0467 H   0  0  0  0  0  0  0  0  0  0  0  0
  -24.2072  -18.8534    5.8329 H   0  0  0  0  0  0  0  0  0  0  0  0
  -22.5074  -19.1944    5.6148 H   0  0  0  0  0  0  0  0  0  0  0  0
  -24.9314  -17.3293    7.2970 H   0  0  0  0  0  0  0  0  0  0  0  0
  -26.3600  -12.5811    8.6967 H   0  0  0  0  0  0  0  0  0  0  0  0
  -24.8121  -15.5102   11.0986 H   0  0  0  0  0  0  0  0  0  0  0  0
  -21.5507  -18.0235    9.4964 H   0  0  0  0  0  0  0  0  0  0  0  0
  -22.6125  -20.6009   12.7253 H   0  0  0  0  0  0  0  0  0  0  0  0
  -21.0776  -21.3262   12.2873 H   0  0  0  0  0  0  0  0  0  0  0  0
  -19.7149  -18.7061   11.7146 H   0  0  0  0  0  0  0  0  0  0  0  0
  -18.5213  -19.6535   10.8597 H   0  0  0  0  0  0  0  0  0  0  0  0
  -19.5213  -20.4037   12.0804 H   0  0  0  0  0  0  0  0  0  0  0  0
  1 17  1  0
  2 23  1  0
  3  4  2  0
  3 25  1  0
  4 26  1  0
  5 18  2  0
  6 16  2  0
  7  6  1  0
  7  1  2  0
  7 27  1  0
  8 28  1  0
  9 20  1  0
  9 29  1  0
  9 30  1  0
 10  6  1  0
 10 15  1  0
 10 31  1  0
 10 32  1  0
 11  2  1  0
 11 24  1  0
 11 33  1  0
 11 34  1  0
 12 23  1  0
 12 35  1  0
 12 36  1  0
 12 37  1  0
 13 15  1  0
 13  9  1  0
 14 13  1  0
 14 38  1  0
 14 39  1  0
 14 40  1  0
 15 19  1  0
 15 41  1  1
 16 17  1  0
 16  5  1  0
 17  3  1  0
 17 42  1  0
 18  4  1  0
 18 43  1  0
 19  5  1  0
 19  8  2  0
 20  8  1  0
 20 21  1  0
 20 44  1  6
 21  2  1  0
 21 22  2  0
 23 45  1  0
 23 46  1  0
 24 47  1  0
 24 48  1  0
 24 49  1  0
M  END
>  <MODEL>  (3) 
       1

>  <SMILES>  (3) 
CCN(CC)C(=O)[C@@H]1C=C2C3=CC=CC4N=CC(=C34)C[C@H]2N(C)C1

$$$$
