Serotonin
     RDKit          3D

 25 26  0  0  0  0  0  0  0  0999 V2000
  -24.8548  -16.5885    4.4195 N   0  0  0  0  0  0  0  0  0  0  0  0
  -24.0243  -16.6956    5.6205 C   0  0  0  0  0  0  0  0  0  0  0  0
  -23.3911  -15.3613    6.0426 C   0  0  0  0  0  0  0  0  0  0  0  0
  -24.3572  -14.4053    6.6724 C   0  0  0  0  0  0  0  0  0  0  0  0
  -25.0597  -13.4073    6.0252 C   0  0  0  0  0  0  0  0  0  0  0  0
  -25.8370  -12.7591    6.9448 N   0  0  0  0  0  0  0  0  0  0  0  0
  -25.6500  -13.3019    8.1941 C   0  0  0  0  0  0  0  0  0  0  0  0
  -26.2273  -12.9554    9.4221 C   0  0  0  0  0  0  0  0  0  0  0  0
  -25.8482  -13.6938   10.5460 C   0  0  0  0  0  0  0  0  0  0  0  0
  -24.9324  -14.7312   10.4339 C   0  0  0  0  0  0  0  0  0  0  0  0
  -24.6082  -15.4110   11.5738 O   0  0  0  0  0  0  0  0  0  0  0  0
  -24.3604  -15.0730    9.2061 C   0  0  0  0  0  0  0  0  0  0  0  0
  -24.7270  -14.3401    8.0563 C   0  0  0  0  0  0  0  0  0  0  0  0
  -24.2976  -16.2371    3.6432 H   0  0  0  0  0  0  0  0  0  0  0  0
  -25.1856  -17.5135    4.1513 H   0  0  0  0  0  0  0  0  0  0  0  0
  -23.2221  -17.4130    5.4129 H   0  0  0  0  0  0  0  0  0  0  0  0
  -24.6281  -17.1091    6.4359 H   0  0  0  0  0  0  0  0  0  0  0  0
  -22.5872  -15.5699    6.7600 H   0  0  0  0  0  0  0  0  0  0  0  0
  -22.9059  -14.8858    5.1804 H   0  0  0  0  0  0  0  0  0  0  0  0
  -25.0813  -13.1185    4.9829 H   0  0  0  0  0  0  0  0  0  0  0  0
  -26.4631  -11.9930    6.7409 H   0  0  0  0  0  0  0  0  0  0  0  0
  -26.9441  -12.1455    9.5059 H   0  0  0  0  0  0  0  0  0  0  0  0
  -26.2743  -13.4552   11.5168 H   0  0  0  0  0  0  0  0  0  0  0  0
  -23.9682  -16.1041   11.3446 H   0  0  0  0  0  0  0  0  0  0  0  0
  -23.6470  -15.8840    9.1225 H   0  0  0  0  0  0  0  0  0  0  0  0
  1  2  1  0
  2  3  1  0
  3  4  1  0
  4  5  2  0
  5  6  1  0
  6  7  1  0
  7  8  2  0
  8  9  1  0
  9 10  2  0
 10 11  1  0
 10 12  1  0
 12 13  2  0
 13  4  1  0
 13  7  1  0
  1 14  1  0
  1 15  1  0
  2 16  1  0
  2 17  1  0
  3 18  1  0
  3 19  1  0
  5 20  1  0
  6 21  1  0
  8 22  1  0
  9 23  1  0
 11 24  1  0
 12 25  1  0
M  END
>  <SMILES>  (1) 
NCCc1c[nH]c2ccc(O)cc12

>  <ALIGN_METHOD>  (1) 
MCS

>  <ALIGN_STATUS>  (1) 
OK

$$$$
LSD
     RDKit          3D

 24 27  0  0  0  0  0  0  0  0999 V2000
  -25.9760  -12.8170    6.9610 N   0  0  0  0  0  0  0  0  0  0  0  0
  -21.8640  -20.0230   10.8660 N   0  0  0  0  0  0  0  0  0  0  0  0
  -26.2210  -12.9890    9.3950 C   0  0  0  0  0  0  0  0  0  0  0  0
  -25.8660  -13.7760   10.4900 C   0  0  0  0  0  0  0  0  0  0  0  0
  -24.6890  -15.2200    9.0070 C   0  0  0  0  0  0  0  0  0  0  0  0
  -24.7790  -14.6110    6.7450 C   0  0  0  0  0  0  0  0  0  0  0  0
  -25.3380  -13.5970    6.0820 C   0  0  0  0  0  0  0  0  0  0  0  0
  -23.3290  -17.0780    9.7390 C   0  0  0  0  0  0  0  0  0  0  0  0
  -23.0070  -18.8370    8.1620 C   0  0  0  0  0  0  0  0  0  0  0  0
  -23.9880  -15.6910    6.3520 C   0  0  0  0  0  0  0  0  0  0  0  0
  -20.5340  -20.0170   10.2380 C   0  0  0  0  0  0  0  0  0  0  0  0
  -22.7720  -22.2560   11.3810 C   0  0  0  0  0  0  0  0  0  0  0  0
  -22.9350  -17.8090    7.1160 N   0  0  0  0  0  0  0  0  0  0  0  0
  -23.2260  -18.4270    5.8140 C   0  0  0  0  0  0  0  0  0  0  0  0
  -23.9920  -16.8260    7.3920 C   0  0  1  0  0  0  0  0  0  0  0  0
  -25.0800  -14.4300    8.0190 C   0  0  0  0  0  0  0  0  0  0  0  0
  -25.8120  -13.3390    8.1770 C   0  0  0  0  0  0  0  0  0  0  0  0
  -25.0860  -14.9140   10.3020 C   0  0  0  0  0  0  0  0  0  0  0  0
  -23.9390  -16.3500    8.7140 C   0  0  1  0  0  0  0  0  0  0  0  0
  -22.5970  -18.2470    9.5090 C   0  0  2  0  0  0  0  0  0  0  0  0
  -22.8570  -19.1710   10.5330 C   0  0  0  0  0  0  0  0  0  0  0  0
  -23.9590  -19.1900   11.0810 O   0  0  0  0  0  0  0  0  0  0  0  0
  -22.0400  -21.0270   11.9280 C   0  0  0  0  0  0  0  0  0  0  0  0
  -19.4950  -19.6690   11.3030 C   0  0  0  0  0  0  0  0  0  0  0  0
  4  3  1  0
  7  6  1  0
  7  1  1  0
 10  6  1  0
 11  2  1  0
 13  9  1  0
 14 13  1  0
 15 13  1  0
 15 10  1  6
 16  6  1  0
 16  5  1  0
 17 16  1  0
 17  3  1  0
 17  1  1  0
 18  5  1  0
 18  4  1  0
 19 15  1  0
 19  8  1  1
 19  5  1  0
 20  9  1  0
 20  8  1  0
 20 21  1  1
 21  2  1  0
 22 21  1  0
 23 12  1  0
 23  2  1  0
 24 11  1  0
M  END
>  <SMILES>  (2) 
CCN(CC)C(O)[C@@H]1C[C@@H]2C3CCCC4NCC(C[C@H]2N(C)C1)C43

$$$$
Psilocin
     RDKit          3D

 31 32  0  0  0  0  0  0  0  0999 V2000
  -23.1040  -18.6803    5.5674 C   0  0  0  0  0  0  0  0  0  0  0  0
  -24.0066  -17.9501    4.6829 N   0  0  0  0  0  0  0  0  0  0  0  0
  -23.3330  -17.5616    3.4472 C   0  0  0  0  0  0  0  0  0  0  0  0
  -24.6774  -16.8202    5.3466 C   0  0  0  0  0  0  0  0  0  0  0  0
  -23.7848  -15.6580    5.8224 C   0  0  0  0  0  0  0  0  0  0  0  0
  -24.5642  -14.6110    6.5616 C   0  0  0  0  0  0  0  0  0  0  0  0
  -25.0508  -13.4488    5.9918 C   0  0  0  0  0  0  0  0  0  0  0  0
  -25.6892  -12.7255    6.9580 N   0  0  0  0  0  0  0  0  0  0  0  0
  -25.6333  -13.3864    8.1615 C   0  0  0  0  0  0  0  0  0  0  0  0
  -26.1446  -13.0035    9.4097 C   0  0  0  0  0  0  0  0  0  0  0  0
  -25.9489  -13.8651   10.4910 C   0  0  0  0  0  0  0  0  0  0  0  0
  -25.2726  -15.0686   10.3275 C   0  0  0  0  0  0  0  0  0  0  0  0
  -24.7761  -15.4361    9.0740 C   0  0  0  0  0  0  0  0  0  0  0  0
  -24.1406  -16.6582    9.0192 O   0  0  0  0  0  0  0  0  0  0  0  0
  -24.9420  -14.5860    7.9522 C   0  0  0  0  0  0  0  0  0  0  0  0
  -23.6232  -18.9914    6.4805 H   0  0  0  0  0  0  0  0  0  0  0  0
  -22.7534  -19.5970    5.0800 H   0  0  0  0  0  0  0  0  0  0  0  0
  -22.2250  -18.0926    5.8521 H   0  0  0  0  0  0  0  0  0  0  0  0
  -22.9873  -18.4504    2.9073 H   0  0  0  0  0  0  0  0  0  0  0  0
  -24.0231  -17.0379    2.7766 H   0  0  0  0  0  0  0  0  0  0  0  0
  -22.4657  -16.9169    3.6254 H   0  0  0  0  0  0  0  0  0  0  0  0
  -25.4409  -16.4238    4.6629 H   0  0  0  0  0  0  0  0  0  0  0  0
  -25.2504  -17.2153    6.1959 H   0  0  0  0  0  0  0  0  0  0  0  0
  -23.2997  -15.1882    4.9574 H   0  0  0  0  0  0  0  0  0  0  0  0
  -22.9726  -16.0163    6.4636 H   0  0  0  0  0  0  0  0  0  0  0  0
  -24.9890  -13.0754    4.9778 H   0  0  0  0  0  0  0  0  0  0  0  0
  -26.1345  -11.8292    6.8181 H   0  0  0  0  0  0  0  0  0  0  0  0
  -26.6755  -12.0658    9.5402 H   0  0  0  0  0  0  0  0  0  0  0  0
  -26.3322  -13.5937   11.4716 H   0  0  0  0  0  0  0  0  0  0  0  0
  -25.1318  -15.7331   11.1758 H   0  0  0  0  0  0  0  0  0  0  0  0
  -23.9758  -16.8549    8.0864 H   0  0  0  0  0  0  0  0  0  0  0  0
  1  2  1  0
  2  3  1  0
  2  4  1  0
  4  5  1  0
  5  6  1  0
  6  7  2  0
  7  8  1  0
  8  9  1  0
  9 10  2  0
 10 11  1  0
 11 12  2  0
 12 13  1  0
 13 14  1  0
 13 15  2  0
 15  6  1  0
 15  9  1  0
  1 16  1  0
  1 17  1  0
  1 18  1  0
  3 19  1  0
  3 20  1  0
  3 21  1  0
  4 22  1  0
  4 23  1  0
  5 24  1  0
  5 25  1  0
  7 26  1  0
  8 27  1  0
 10 28  1  0
 11 29  1  0
 12 30  1  0
 14 31  1  0
M  END
>  <SMILES>  (3) 
CN(C)CCc1c[nH]c2cccc(O)c12

>  <ALIGN_METHOD>  (3) 
MCS

>  <ALIGN_STATUS>  (3) 
OK

$$$$
Serotonin__p0
     RDKit          3D

 26 27  0  0  0  0  0  0  0  0999 V2000
  -21.9497  -15.6296    7.4267 N   0  0  0  0  0  0  0  0  0  0  0  0
  -22.3554  -15.6726    6.0010 C   0  0  0  0  0  0  0  0  0  0  0  0
  -23.8763  -15.7345    5.8617 C   0  0  0  0  0  0  0  0  0  0  0  0
  -24.5828  -14.6207    6.5683 C   0  0  0  0  0  0  0  0  0  0  0  0
  -25.0388  -13.4509    5.9940 C   0  0  0  0  0  0  0  0  0  0  0  0
  -25.6773  -12.7153    6.9577 N   0  0  0  0  0  0  0  0  0  0  0  0
  -25.6257  -13.3727    8.1648 C   0  0  0  0  0  0  0  0  0  0  0  0
  -26.1418  -13.0002    9.4117 C   0  0  0  0  0  0  0  0  0  0  0  0
  -25.9523  -13.8767   10.4847 C   0  0  0  0  0  0  0  0  0  0  0  0
  -25.2674  -15.0785   10.3218 C   0  0  0  0  0  0  0  0  0  0  0  0
  -24.7600  -15.4298    9.0676 C   0  0  0  0  0  0  0  0  0  0  0  0
  -24.0395  -16.5996    8.9339 O   0  0  0  0  0  0  0  0  0  0  0  0
  -24.9422  -14.5717    7.9588 C   0  0  0  0  0  0  0  0  0  0  0  0
  -22.5201  -16.2880    7.9900 H   0  0  0  0  0  0  0  0  0  0  0  0
  -20.9575  -15.8325    7.5798 H   0  0  0  0  0  0  0  0  0  0  0  0
  -22.1613  -14.7061    7.8299 H   0  0  0  0  0  0  0  0  0  0  0  0
  -21.9346  -14.7790    5.5298 H   0  0  0  0  0  0  0  0  0  0  0  0
  -21.8913  -16.5628    5.5660 H   0  0  0  0  0  0  0  0  0  0  0  0
  -24.2443  -16.6967    6.2386 H   0  0  0  0  0  0  0  0  0  0  0  0
  -24.1322  -15.7121    4.7949 H   0  0  0  0  0  0  0  0  0  0  0  0
  -24.9979  -13.0866    4.9745 H   0  0  0  0  0  0  0  0  0  0  0  0
  -26.1376  -11.8259    6.8073 H   0  0  0  0  0  0  0  0  0  0  0  0
  -26.6807  -12.0664    9.5489 H   0  0  0  0  0  0  0  0  0  0  0  0
  -26.3486  -13.6103   11.4637 H   0  0  0  0  0  0  0  0  0  0  0  0
  -25.1317  -15.7225   11.1869 H   0  0  0  0  0  0  0  0  0  0  0  0
  -24.3740  -17.1966    9.6362 H   0  0  0  0  0  0  0  0  0  0  0  0
  1  2  1  0
  2  3  1  0
  3  4  1  0
  4  5  2  0
  5  6  1  0
  6  7  1  0
  7  8  2  0
  8  9  1  0
  9 10  2  0
 10 11  1  0
 11 12  1  0
 11 13  2  0
 13  4  1  0
 13  7  1  0
  1 14  1  0
  1 15  1  0
  1 16  1  0
  2 17  1  0
  2 18  1  0
  3 19  1  0
  3 20  1  0
  5 21  1  0
  6 22  1  0
  8 23  1  0
  9 24  1  0
 10 25  1  0
 12 26  1  0
M  CHG  1   1   1
M  END
>  <input_smiles>  (4) 
NCCc1c[nH]c2cccc(O)c12

>  <prot_variant_index>  (4) 
0

>  <SMILES>  (4) 
[NH3+]CCc1c[nH]c2cccc(O)c12

>  <ALIGN_METHOD>  (4) 
MCS

>  <ALIGN_STATUS>  (4) 
OK

$$$$
Serotonin__p1
     RDKit          3D

 25 26  0  0  0  0  0  0  0  0999 V2000
  -24.5922  -17.8028    6.7482 N   0  0  0  0  0  0  0  0  0  0  0  0
  -24.5733  -16.9354    5.5677 C   0  0  0  0  0  0  0  0  0  0  0  0
  -23.7815  -15.6531    5.8275 C   0  0  0  0  0  0  0  0  0  0  0  0
  -24.5682  -14.6080    6.5592 C   0  0  0  0  0  0  0  0  0  0  0  0
  -25.0604  -13.4487    5.9893 C   0  0  0  0  0  0  0  0  0  0  0  0
  -25.6870  -12.7286    6.9646 N   0  0  0  0  0  0  0  0  0  0  0  0
  -25.6346  -13.3934    8.1657 C   0  0  0  0  0  0  0  0  0  0  0  0
  -26.1519  -13.0021    9.4048 C   0  0  0  0  0  0  0  0  0  0  0  0
  -25.9549  -13.8590   10.4814 C   0  0  0  0  0  0  0  0  0  0  0  0
  -25.2726  -15.0617   10.3147 C   0  0  0  0  0  0  0  0  0  0  0  0
  -24.7485  -15.4760    9.0747 C   0  0  0  0  0  0  0  0  0  0  0  0
  -24.1439  -16.5765    8.8669 O   0  0  0  0  0  0  0  0  0  0  0  0
  -24.9367  -14.5916    7.9631 C   0  0  0  0  0  0  0  0  0  0  0  0
  -24.8152  -17.2012    7.5930 H   0  0  0  0  0  0  0  0  0  0  0  0
  -23.6653  -18.0844    7.0884 H   0  0  0  0  0  0  0  0  0  0  0  0
  -25.2593  -18.5687    6.7904 H   0  0  0  0  0  0  0  0  0  0  0  0
  -24.1060  -17.5224    4.7715 H   0  0  0  0  0  0  0  0  0  0  0  0
  -25.6146  -16.7331    5.2972 H   0  0  0  0  0  0  0  0  0  0  0  0
  -22.8449  -15.8642    6.3573 H   0  0  0  0  0  0  0  0  0  0  0  0
  -23.4864  -15.2400    4.8536 H   0  0  0  0  0  0  0  0  0  0  0  0
  -24.9983  -13.0656    4.9799 H   0  0  0  0  0  0  0  0  0  0  0  0
  -26.1226  -11.8266    6.8381 H   0  0  0  0  0  0  0  0  0  0  0  0
  -26.6805  -12.0645    9.5315 H   0  0  0  0  0  0  0  0  0  0  0  0
  -26.3326  -13.5925   11.4639 H   0  0  0  0  0  0  0  0  0  0  0  0
  -25.1359  -15.7097   11.1798 H   0  0  0  0  0  0  0  0  0  0  0  0
  1  2  1  0
  2  3  1  0
  3  4  1  0
  4  5  2  0
  5  6  1  0
  6  7  1  0
  7  8  2  0
  8  9  1  0
  9 10  2  0
 10 11  1  0
 11 12  1  0
 11 13  2  0
 13  4  1  0
 13  7  1  0
  1 14  1  0
  1 15  1  0
  1 16  1  0
  2 17  1  0
  2 18  1  0
  3 19  1  0
  3 20  1  0
  5 21  1  0
  6 22  1  0
  8 23  1  0
  9 24  1  0
 10 25  1  0
M  CHG  2   1   1  12  -1
M  END
>  <input_smiles>  (5) 
NCCc1c[nH]c2cccc(O)c12

>  <prot_variant_index>  (5) 
1

>  <SMILES>  (5) 
[NH3+]CCc1c[nH]c2cccc([O-])c12

>  <ALIGN_METHOD>  (5) 
MCS

>  <ALIGN_STATUS>  (5) 
OK

$$$$
Serotonin__p2
     RDKit          3D

 25 26  0  0  0  0  0  0  0  0999 V2000
  -21.9014  -15.8881    7.2863 N   0  0  0  0  0  0  0  0  0  0  0  0
  -22.3973  -15.7266    5.9132 C   0  0  0  0  0  0  0  0  0  0  0  0
  -23.9281  -15.7523    5.8309 C   0  0  0  0  0  0  0  0  0  0  0  0
  -24.5974  -14.6282    6.5621 C   0  0  0  0  0  0  0  0  0  0  0  0
  -25.0545  -13.4556    5.9905 C   0  0  0  0  0  0  0  0  0  0  0  0
  -25.6661  -12.7121    6.9614 N   0  0  0  0  0  0  0  0  0  0  0  0
  -25.6222  -13.3721    8.1662 C   0  0  0  0  0  0  0  0  0  0  0  0
  -26.1448  -12.9989    9.4123 C   0  0  0  0  0  0  0  0  0  0  0  0
  -25.9633  -13.8747   10.4869 C   0  0  0  0  0  0  0  0  0  0  0  0
  -25.2689  -15.0696   10.3253 C   0  0  0  0  0  0  0  0  0  0  0  0
  -24.7410  -15.4140    9.0797 C   0  0  0  0  0  0  0  0  0  0  0  0
  -24.0165  -16.5858    9.0246 O   0  0  0  0  0  0  0  0  0  0  0  0
  -24.9309  -14.5701    7.9601 C   0  0  0  0  0  0  0  0  0  0  0  0
  -20.8866  -16.0089    7.2513 H   0  0  0  0  0  0  0  0  0  0  0  0
  -22.0317  -14.9929    7.7722 H   0  0  0  0  0  0  0  0  0  0  0  0
  -22.0005  -16.5473    5.3055 H   0  0  0  0  0  0  0  0  0  0  0  0
  -22.0045  -14.7918    5.4974 H   0  0  0  0  0  0  0  0  0  0  0  0
  -24.2172  -15.7107    4.7725 H   0  0  0  0  0  0  0  0  0  0  0  0
  -24.3085  -16.7112    6.2049 H   0  0  0  0  0  0  0  0  0  0  0  0
  -25.0162  -13.1000    4.9693 H   0  0  0  0  0  0  0  0  0  0  0  0
  -26.1098  -11.8157    6.8170 H   0  0  0  0  0  0  0  0  0  0  0  0
  -26.6831  -12.0658    9.5445 H   0  0  0  0  0  0  0  0  0  0  0  0
  -26.3645  -13.6164   11.4640 H   0  0  0  0  0  0  0  0  0  0  0  0
  -25.1222  -15.7350   11.1716 H   0  0  0  0  0  0  0  0  0  0  0  0
  -23.3696  -16.4968    8.2899 H   0  0  0  0  0  0  0  0  0  0  0  0
  1  2  1  0
  2  3  1  0
  3  4  1  0
  4  5  2  0
  5  6  1  0
  6  7  1  0
  7  8  2  0
  8  9  1  0
  9 10  2  0
 10 11  1  0
 11 12  1  0
 11 13  2  0
 13  4  1  0
 13  7  1  0
  1 14  1  0
  1 15  1  0
  2 16  1  0
  2 17  1  0
  3 18  1  0
  3 19  1  0
  5 20  1  0
  6 21  1  0
  8 22  1  0
  9 23  1  0
 10 24  1  0
 12 25  1  0
M  END
>  <input_smiles>  (6) 
NCCc1c[nH]c2cccc(O)c12

>  <prot_variant_index>  (6) 
2

>  <SMILES>  (6) 
NCCc1c[nH]c2cccc(O)c12

>  <ALIGN_METHOD>  (6) 
MCS

>  <ALIGN_STATUS>  (6) 
OK

$$$$
Serotonin__p3
     RDKit          3D

 24 25  0  0  0  0  0  0  0  0999 V2000
  -21.5844  -16.7207    5.4661 N   0  0  0  0  0  0  0  0  0  0  0  0
  -22.3088  -15.5953    6.0895 C   0  0  0  0  0  0  0  0  0  0  0  0
  -23.8192  -15.6819    5.8416 C   0  0  0  0  0  0  0  0  0  0  0  0
  -24.5757  -14.6063    6.5597 C   0  0  0  0  0  0  0  0  0  0  0  0
  -25.0553  -13.4424    5.9897 C   0  0  0  0  0  0  0  0  0  0  0  0
  -25.6839  -12.7275    6.9650 N   0  0  0  0  0  0  0  0  0  0  0  0
  -25.6303  -13.3879    8.1694 C   0  0  0  0  0  0  0  0  0  0  0  0
  -26.1486  -12.9964    9.4087 C   0  0  0  0  0  0  0  0  0  0  0  0
  -25.9566  -13.8570   10.4835 C   0  0  0  0  0  0  0  0  0  0  0  0
  -25.2721  -15.0590   10.3148 C   0  0  0  0  0  0  0  0  0  0  0  0
  -24.7412  -15.4749    9.0762 C   0  0  0  0  0  0  0  0  0  0  0  0
  -24.1104  -16.5633    8.8808 O   0  0  0  0  0  0  0  0  0  0  0  0
  -24.9375  -14.5905    7.9654 C   0  0  0  0  0  0  0  0  0  0  0  0
  -22.0048  -17.5651    5.8662 H   0  0  0  0  0  0  0  0  0  0  0  0
  -20.6392  -16.7068    5.8459 H   0  0  0  0  0  0  0  0  0  0  0  0
  -21.9153  -14.6585    5.6782 H   0  0  0  0  0  0  0  0  0  0  0  0
  -22.0838  -15.5885    7.1608 H   0  0  0  0  0  0  0  0  0  0  0  0
  -24.0097  -15.5987    4.7631 H   0  0  0  0  0  0  0  0  0  0  0  0
  -24.2068  -16.6651    6.1333 H   0  0  0  0  0  0  0  0  0  0  0  0
  -24.9977  -13.0756    4.9754 H   0  0  0  0  0  0  0  0  0  0  0  0
  -26.1312  -11.8345    6.8340 H   0  0  0  0  0  0  0  0  0  0  0  0
  -26.6796  -12.0614    9.5323 H   0  0  0  0  0  0  0  0  0  0  0  0
  -26.3397  -13.5988   11.4645 H   0  0  0  0  0  0  0  0  0  0  0  0
  -25.1354  -15.7159   11.1721 H   0  0  0  0  0  0  0  0  0  0  0  0
  1  2  1  0
  2  3  1  0
  3  4  1  0
  4  5  2  0
  5  6  1  0
  6  7  1  0
  7  8  2  0
  8  9  1  0
  9 10  2  0
 10 11  1  0
 11 12  1  0
 11 13  2  0
 13  4  1  0
 13  7  1  0
  1 14  1  0
  1 15  1  0
  2 16  1  0
  2 17  1  0
  3 18  1  0
  3 19  1  0
  5 20  1  0
  6 21  1  0
  8 22  1  0
  9 23  1  0
 10 24  1  0
M  CHG  1  12  -1
M  END
>  <input_smiles>  (7) 
NCCc1c[nH]c2cccc(O)c12

>  <prot_variant_index>  (7) 
3

>  <SMILES>  (7) 
NCCc1c[nH]c2cccc([O-])c12

>  <ALIGN_METHOD>  (7) 
MCS

>  <ALIGN_STATUS>  (7) 
OK

$$$$
Psilocin__p0
     RDKit          3D

 31 32  0  0  0  0  0  0  0  0999 V2000
  -23.5520  -17.5820    3.4393 C   0  0  0  0  0  0  0  0  0  0  0  0
  -24.0070  -17.9756    4.7736 N   0  0  0  0  0  0  0  0  0  0  0  0
  -24.8846  -19.1444    4.6718 C   0  0  0  0  0  0  0  0  0  0  0  0
  -24.7193  -16.8749    5.4602 C   0  0  0  0  0  0  0  0  0  0  0  0
  -23.8113  -15.7013    5.8699 C   0  0  0  0  0  0  0  0  0  0  0  0
  -24.5730  -14.6142    6.5717 C   0  0  0  0  0  0  0  0  0  0  0  0
  -25.0513  -13.4538    5.9926 C   0  0  0  0  0  0  0  0  0  0  0  0
  -25.6846  -12.7204    6.9573 N   0  0  0  0  0  0  0  0  0  0  0  0
  -25.6362  -13.3763    8.1646 C   0  0  0  0  0  0  0  0  0  0  0  0
  -26.1497  -13.0010    9.4126 C   0  0  0  0  0  0  0  0  0  0  0  0
  -25.9512  -13.8728   10.4870 C   0  0  0  0  0  0  0  0  0  0  0  0
  -25.2657  -15.0744   10.3207 C   0  0  0  0  0  0  0  0  0  0  0  0
  -24.7605  -15.4302    9.0653 C   0  0  0  0  0  0  0  0  0  0  0  0
  -24.0894  -16.6177    8.9117 O   0  0  0  0  0  0  0  0  0  0  0  0
  -24.9430  -14.5719    7.9586 C   0  0  0  0  0  0  0  0  0  0  0  0
  -23.0607  -18.4238    2.9376 H   0  0  0  0  0  0  0  0  0  0  0  0
  -24.3776  -17.2413    2.8041 H   0  0  0  0  0  0  0  0  0  0  0  0
  -22.8023  -16.7870    3.4928 H   0  0  0  0  0  0  0  0  0  0  0  0
  -24.3583  -19.9821    4.2005 H   0  0  0  0  0  0  0  0  0  0  0  0
  -25.7891  -18.9333    4.0897 H   0  0  0  0  0  0  0  0  0  0  0  0
  -25.1862  -19.4890    5.6673 H   0  0  0  0  0  0  0  0  0  0  0  0
  -25.1796  -17.2717    6.3749 H   0  0  0  0  0  0  0  0  0  0  0  0
  -25.5465  -16.5086    4.8365 H   0  0  0  0  0  0  0  0  0  0  0  0
  -23.3308  -15.2638    4.9869 H   0  0  0  0  0  0  0  0  0  0  0  0
  -23.0006  -16.0604    6.5152 H   0  0  0  0  0  0  0  0  0  0  0  0
  -24.9893  -13.0905    4.9755 H   0  0  0  0  0  0  0  0  0  0  0  0
  -26.1253  -11.8233    6.8107 H   0  0  0  0  0  0  0  0  0  0  0  0
  -26.6841  -12.0662    9.5476 H   0  0  0  0  0  0  0  0  0  0  0  0
  -26.3389  -13.6071   11.4679 H   0  0  0  0  0  0  0  0  0  0  0  0
  -25.1321  -15.7261   11.1787 H   0  0  0  0  0  0  0  0  0  0  0  0
  -24.0411  -17.0626    9.7720 H   0  0  0  0  0  0  0  0  0  0  0  0
  1  2  1  0
  2  3  1  0
  2  4  1  0
  4  5  1  0
  5  6  1  0
  6  7  2  0
  7  8  1  0
  8  9  1  0
  9 10  2  0
 10 11  1  0
 11 12  2  0
 12 13  1  0
 13 14  1  0
 13 15  2  0
 15  6  1  0
 15  9  1  0
  1 16  1  0
  1 17  1  0
  1 18  1  0
  3 19  1  0
  3 20  1  0
  3 21  1  0
  4 22  1  0
  4 23  1  0
  5 24  1  0
  5 25  1  0
  7 26  1  0
  8 27  1  0
 10 28  1  0
 11 29  1  0
 12 30  1  0
 14 31  1  0
M  END
>  <input_smiles>  (8) 
CN(C)CCc1c[nH]c2cccc(O)c12

>  <prot_variant_index>  (8) 
0

>  <SMILES>  (8) 
CN(C)CCc1c[nH]c2cccc(O)c12

>  <ALIGN_METHOD>  (8) 
MCS

>  <ALIGN_STATUS>  (8) 
OK

$$$$
Psilocin__p1
     RDKit          3D

 31 32  0  0  0  0  0  0  0  0999 V2000
  -24.6048  -19.3286    4.9586 C   0  0  0  0  0  0  0  0  0  0  0  0
  -23.8017  -18.2159    5.5439 N   0  0  0  0  0  0  0  0  0  0  0  0
  -23.1101  -18.6625    6.8149 C   0  0  0  0  0  0  0  0  0  0  0  0
  -24.6713  -16.9865    5.8062 C   0  0  0  0  0  0  0  0  0  0  0  0
  -23.8305  -15.7088    5.8993 C   0  0  0  0  0  0  0  0  0  0  0  0
  -24.5825  -14.6100    6.5685 C   0  0  0  0  0  0  0  0  0  0  0  0
  -25.0581  -13.4522    5.9878 C   0  0  0  0  0  0  0  0  0  0  0  0
  -25.6807  -12.7243    6.9632 N   0  0  0  0  0  0  0  0  0  0  0  0
  -25.6357  -13.3852    8.1685 C   0  0  0  0  0  0  0  0  0  0  0  0
  -26.1555  -12.9978    9.4071 C   0  0  0  0  0  0  0  0  0  0  0  0
  -25.9590  -13.8619   10.4797 C   0  0  0  0  0  0  0  0  0  0  0  0
  -25.2684  -15.0619   10.3116 C   0  0  0  0  0  0  0  0  0  0  0  0
  -24.7362  -15.4719    9.0733 C   0  0  0  0  0  0  0  0  0  0  0  0
  -24.0970  -16.5528    8.8656 O   0  0  0  0  0  0  0  0  0  0  0  0
  -24.9397  -14.5832    7.9703 C   0  0  0  0  0  0  0  0  0  0  0  0
  -23.9361  -20.1737    4.7742 H   0  0  0  0  0  0  0  0  0  0  0  0
  -25.0267  -18.9840    4.0107 H   0  0  0  0  0  0  0  0  0  0  0  0
  -25.3964  -19.6036    5.6612 H   0  0  0  0  0  0  0  0  0  0  0  0
  -23.0695  -17.9375    4.8856 H   0  0  0  0  0  0  0  0  0  0  0  0
  -23.8669  -18.9376    7.5526 H   0  0  0  0  0  0  0  0  0  0  0  0
  -22.5038  -19.5379    6.5627 H   0  0  0  0  0  0  0  0  0  0  0  0
  -22.4427  -17.8699    7.1537 H   0  0  0  0  0  0  0  0  0  0  0  0
  -25.3052  -17.2100    6.6681 H   0  0  0  0  0  0  0  0  0  0  0  0
  -25.3409  -16.8912    4.9417 H   0  0  0  0  0  0  0  0  0  0  0  0
  -22.8868  -15.8669    6.4311 H   0  0  0  0  0  0  0  0  0  0  0  0
  -23.5440  -15.4003    4.8853 H   0  0  0  0  0  0  0  0  0  0  0  0
  -24.9986  -13.0786    4.9754 H   0  0  0  0  0  0  0  0  0  0  0  0
  -26.1150  -11.8227    6.8332 H   0  0  0  0  0  0  0  0  0  0  0  0
  -26.6871  -12.0629    9.5363 H   0  0  0  0  0  0  0  0  0  0  0  0
  -26.3408  -13.6032   11.4625 H   0  0  0  0  0  0  0  0  0  0  0  0
  -25.1275  -15.7125   11.1735 H   0  0  0  0  0  0  0  0  0  0  0  0
  1  2  1  0
  2  3  1  0
  2  4  1  0
  4  5  1  0
  5  6  1  0
  6  7  2  0
  7  8  1  0
  8  9  1  0
  9 10  2  0
 10 11  1  0
 11 12  2  0
 12 13  1  0
 13 14  1  0
 13 15  2  0
 15  6  1  0
 15  9  1  0
  1 16  1  0
  1 17  1  0
  1 18  1  0
  2 19  1  0
  3 20  1  0
  3 21  1  0
  3 22  1  0
  4 23  1  0
  4 24  1  0
  5 25  1  0
  5 26  1  0
  7 27  1  0
  8 28  1  0
 10 29  1  0
 11 30  1  0
 12 31  1  0
M  CHG  2   2   1  14  -1
M  END
>  <input_smiles>  (9) 
CN(C)CCc1c[nH]c2cccc(O)c12

>  <prot_variant_index>  (9) 
1

>  <SMILES>  (9) 
C[NH+](C)CCc1c[nH]c2cccc([O-])c12

>  <ALIGN_METHOD>  (9) 
MCS

>  <ALIGN_STATUS>  (9) 
OK

$$$$
Psilocin__p2
     RDKit          3D

 30 31  0  0  0  0  0  0  0  0999 V2000
  -21.6586  -14.4020    4.0993 C   0  0  0  0  0  0  0  0  0  0  0  0
  -21.3739  -14.6534    5.5031 N   0  0  0  0  0  0  0  0  0  0  0  0
  -21.3888  -13.4192    6.2824 C   0  0  0  0  0  0  0  0  0  0  0  0
  -22.2562  -15.6858    6.1067 C   0  0  0  0  0  0  0  0  0  0  0  0
  -23.7787  -15.6591    5.8458 C   0  0  0  0  0  0  0  0  0  0  0  0
  -24.5457  -14.5922    6.5657 C   0  0  0  0  0  0  0  0  0  0  0  0
  -25.0605  -13.4452    5.9895 C   0  0  0  0  0  0  0  0  0  0  0  0
  -25.6841  -12.7281    6.9658 N   0  0  0  0  0  0  0  0  0  0  0  0
  -25.6216  -13.3840    8.1713 C   0  0  0  0  0  0  0  0  0  0  0  0
  -26.1416  -12.9930    9.4101 C   0  0  0  0  0  0  0  0  0  0  0  0
  -25.9543  -13.8552   10.4840 C   0  0  0  0  0  0  0  0  0  0  0  0
  -25.2788  -15.0615   10.3129 C   0  0  0  0  0  0  0  0  0  0  0  0
  -24.7478  -15.4771    9.0742 C   0  0  0  0  0  0  0  0  0  0  0  0
  -24.1395  -16.5767    8.8740 O   0  0  0  0  0  0  0  0  0  0  0  0
  -24.9247  -14.5846    7.9673 C   0  0  0  0  0  0  0  0  0  0  0  0
  -20.8800  -13.7651    3.6642 H   0  0  0  0  0  0  0  0  0  0  0  0
  -21.6510  -15.3365    3.5274 H   0  0  0  0  0  0  0  0  0  0  0  0
  -22.6209  -13.9040    3.9410 H   0  0  0  0  0  0  0  0  0  0  0  0
  -20.6036  -12.7433    5.9244 H   0  0  0  0  0  0  0  0  0  0  0  0
  -21.1670  -13.6150    7.3373 H   0  0  0  0  0  0  0  0  0  0  0  0
  -22.3374  -12.8813    6.2199 H   0  0  0  0  0  0  0  0  0  0  0  0
  -22.0502  -15.7416    7.1819 H   0  0  0  0  0  0  0  0  0  0  0  0
  -21.8957  -16.6444    5.7088 H   0  0  0  0  0  0  0  0  0  0  0  0
  -24.1945  -16.6362    6.1229 H   0  0  0  0  0  0  0  0  0  0  0  0
  -23.9725  -15.5841    4.7686 H   0  0  0  0  0  0  0  0  0  0  0  0
  -25.0181  -13.0855    4.9723 H   0  0  0  0  0  0  0  0  0  0  0  0
  -26.1433  -11.8414    6.8327 H   0  0  0  0  0  0  0  0  0  0  0  0
  -26.6732  -12.0582    9.5332 H   0  0  0  0  0  0  0  0  0  0  0  0
  -26.3390  -13.5978   11.4647 H   0  0  0  0  0  0  0  0  0  0  0  0
  -25.1521  -15.7243   11.1672 H   0  0  0  0  0  0  0  0  0  0  0  0
  1  2  1  0
  2  3  1  0
  2  4  1  0
  4  5  1  0
  5  6  1  0
  6  7  2  0
  7  8  1  0
  8  9  1  0
  9 10  2  0
 10 11  1  0
 11 12  2  0
 12 13  1  0
 13 14  1  0
 13 15  2  0
 15  6  1  0
 15  9  1  0
  1 16  1  0
  1 17  1  0
  1 18  1  0
  3 19  1  0
  3 20  1  0
  3 21  1  0
  4 22  1  0
  4 23  1  0
  5 24  1  0
  5 25  1  0
  7 26  1  0
  8 27  1  0
 10 28  1  0
 11 29  1  0
 12 30  1  0
M  CHG  1  14  -1
M  END
>  <input_smiles>  (10) 
CN(C)CCc1c[nH]c2cccc(O)c12

>  <prot_variant_index>  (10) 
2

>  <SMILES>  (10) 
CN(C)CCc1c[nH]c2cccc([O-])c12

>  <ALIGN_METHOD>  (10) 
MCS

>  <ALIGN_STATUS>  (10) 
OK

$$$$
Psilocin__p3
     RDKit          3D

 32 33  0  0  0  0  0  0  0  0999 V2000
  -24.7548  -19.0882    6.4569 C   0  0  0  0  0  0  0  0  0  0  0  0
  -25.1903  -17.6580    6.4805 N   0  0  0  0  0  0  0  0  0  0  0  0
  -26.6797  -17.5161    6.5933 C   0  0  0  0  0  0  0  0  0  0  0  0
  -24.6036  -16.8316    5.3487 C   0  0  0  0  0  0  0  0  0  0  0  0
  -23.7604  -15.6675    5.8793 C   0  0  0  0  0  0  0  0  0  0  0  0
  -24.5641  -14.6124    6.5725 C   0  0  0  0  0  0  0  0  0  0  0  0
  -25.0564  -13.4597    5.9906 C   0  0  0  0  0  0  0  0  0  0  0  0
  -25.6912  -12.7232    6.9550 N   0  0  0  0  0  0  0  0  0  0  0  0
  -25.6424  -13.3822    8.1607 C   0  0  0  0  0  0  0  0  0  0  0  0
  -26.1519  -13.0055    9.4094 C   0  0  0  0  0  0  0  0  0  0  0  0
  -25.9471  -13.8732   10.4863 C   0  0  0  0  0  0  0  0  0  0  0  0
  -25.2638  -15.0756   10.3224 C   0  0  0  0  0  0  0  0  0  0  0  0
  -24.7646  -15.4307    9.0657 C   0  0  0  0  0  0  0  0  0  0  0  0
  -24.1311  -16.6449    8.9074 O   0  0  0  0  0  0  0  0  0  0  0  0
  -24.9455  -14.5743    7.9569 C   0  0  0  0  0  0  0  0  0  0  0  0
  -25.1555  -19.5825    7.3459 H   0  0  0  0  0  0  0  0  0  0  0  0
  -25.1367  -19.5546    5.5449 H   0  0  0  0  0  0  0  0  0  0  0  0
  -23.6620  -19.1105    6.4820 H   0  0  0  0  0  0  0  0  0  0  0  0
  -24.8113  -17.2641    7.3640 H   0  0  0  0  0  0  0  0  0  0  0  0
  -27.0006  -18.0275    7.5047 H   0  0  0  0  0  0  0  0  0  0  0  0
  -26.9275  -16.4543    6.6565 H   0  0  0  0  0  0  0  0  0  0  0  0
  -27.1386  -17.9693    5.7105 H   0  0  0  0  0  0  0  0  0  0  0  0
  -23.9741  -17.4955    4.7456 H   0  0  0  0  0  0  0  0  0  0  0  0
  -25.4282  -16.4829    4.7164 H   0  0  0  0  0  0  0  0  0  0  0  0
  -23.2383  -15.2083    5.0298 H   0  0  0  0  0  0  0  0  0  0  0  0
  -22.9746  -16.0417    6.5462 H   0  0  0  0  0  0  0  0  0  0  0  0
  -24.9856  -13.0801    4.9787 H   0  0  0  0  0  0  0  0  0  0  0  0
  -26.1199  -11.8170    6.8129 H   0  0  0  0  0  0  0  0  0  0  0  0
  -26.6832  -12.0678    9.5476 H   0  0  0  0  0  0  0  0  0  0  0  0
  -26.3305  -13.6003   11.4684 H   0  0  0  0  0  0  0  0  0  0  0  0
  -25.1385  -15.7261   11.1838 H   0  0  0  0  0  0  0  0  0  0  0  0
  -23.7804  -16.8799    9.7907 H   0  0  0  0  0  0  0  0  0  0  0  0
  1  2  1  0
  2  3  1  0
  2  4  1  0
  4  5  1  0
  5  6  1  0
  6  7  2  0
  7  8  1  0
  8  9  1  0
  9 10  2  0
 10 11  1  0
 11 12  2  0
 12 13  1  0
 13 14  1  0
 13 15  2  0
 15  6  1  0
 15  9  1  0
  1 16  1  0
  1 17  1  0
  1 18  1  0
  2 19  1  0
  3 20  1  0
  3 21  1  0
  3 22  1  0
  4 23  1  0
  4 24  1  0
  5 25  1  0
  5 26  1  0
  7 27  1  0
  8 28  1  0
 10 29  1  0
 11 30  1  0
 12 31  1  0
 14 32  1  0
M  CHG  1   2   1
M  END
>  <input_smiles>  (11) 
CN(C)CCc1c[nH]c2cccc(O)c12

>  <prot_variant_index>  (11) 
3

>  <SMILES>  (11) 
C[NH+](C)CCc1c[nH]c2cccc(O)c12

>  <ALIGN_METHOD>  (11) 
MCS

>  <ALIGN_STATUS>  (11) 
OK

$$$$
DMT__p0
     RDKit          3D

 33 34  0  0  0  0  0  0  0  0999 V2000
  -24.0329  -16.7777    8.9713 C   0  0  0  0  0  0  0  0  0  0  0  0
  -24.7598  -15.4631    9.0617 C   0  0  0  0  0  0  0  0  0  0  0  0
  -25.2721  -15.0667   10.3164 C   0  0  0  0  0  0  0  0  0  0  0  0
  -25.9521  -13.8641   10.4844 C   0  0  0  0  0  0  0  0  0  0  0  0
  -26.1476  -13.0021    9.4089 C   0  0  0  0  0  0  0  0  0  0  0  0
  -25.6315  -13.3865    8.1667 C   0  0  0  0  0  0  0  0  0  0  0  0
  -25.6844  -12.7255    6.9641 N   0  0  0  0  0  0  0  0  0  0  0  0
  -25.0519  -13.4504    5.9948 C   0  0  0  0  0  0  0  0  0  0  0  0
  -24.5581  -14.6102    6.5636 C   0  0  0  0  0  0  0  0  0  0  0  0
  -23.7885  -15.7053    5.8722 C   0  0  0  0  0  0  0  0  0  0  0  0
  -23.2833  -15.3544    4.4604 C   0  0  0  0  0  0  0  0  0  0  0  0
  -22.4226  -16.3966    3.8600 N   0  0  0  0  0  0  0  0  0  0  0  0
  -23.1726  -17.6165    3.5544 C   0  0  0  0  0  0  0  0  0  0  0  0
  -21.7982  -15.8825    2.6378 C   0  0  0  0  0  0  0  0  0  0  0  0
  -24.9393  -14.5832    7.9578 C   0  0  0  0  0  0  0  0  0  0  0  0
  -22.9608  -16.6035    8.8398 H   0  0  0  0  0  0  0  0  0  0  0  0
  -24.1702  -17.3782    9.8767 H   0  0  0  0  0  0  0  0  0  0  0  0
  -24.4136  -17.3685    8.1332 H   0  0  0  0  0  0  0  0  0  0  0  0
  -25.1389  -15.7129   11.1823 H   0  0  0  0  0  0  0  0  0  0  0  0
  -26.3352  -13.5951   11.4657 H   0  0  0  0  0  0  0  0  0  0  0  0
  -26.6790  -12.0651    9.5377 H   0  0  0  0  0  0  0  0  0  0  0  0
  -26.1311  -11.8303    6.8245 H   0  0  0  0  0  0  0  0  0  0  0  0
  -25.0037  -13.0731    4.9823 H   0  0  0  0  0  0  0  0  0  0  0  0
  -24.4408  -16.5848    5.8266 H   0  0  0  0  0  0  0  0  0  0  0  0
  -22.9214  -15.9662    6.4909 H   0  0  0  0  0  0  0  0  0  0  0  0
  -22.6995  -14.4273    4.5406 H   0  0  0  0  0  0  0  0  0  0  0  0
  -24.1325  -15.1361    3.7989 H   0  0  0  0  0  0  0  0  0  0  0  0
  -24.0200  -17.4249    2.8863 H   0  0  0  0  0  0  0  0  0  0  0  0
  -23.5475  -18.0909    4.4665 H   0  0  0  0  0  0  0  0  0  0  0  0
  -22.5218  -18.3580    3.0767 H   0  0  0  0  0  0  0  0  0  0  0  0
  -21.1847  -15.0018    2.8586 H   0  0  0  0  0  0  0  0  0  0  0  0
  -21.1235  -16.6300    2.2055 H   0  0  0  0  0  0  0  0  0  0  0  0
  -22.5397  -15.6064    1.8792 H   0  0  0  0  0  0  0  0  0  0  0  0
  1  2  1  0
  2  3  2  0
  3  4  1  0
  4  5  2  0
  5  6  1  0
  6  7  1  0
  7  8  1  0
  8  9  2  0
  9 10  1  0
 10 11  1  0
 11 12  1  0
 12 13  1  0
 12 14  1  0
  9 15  1  0
 15  2  1  0
 15  6  2  0
  1 16  1  0
  1 17  1  0
  1 18  1  0
  3 19  1  0
  4 20  1  0
  5 21  1  0
  7 22  1  0
  8 23  1  0
 10 24  1  0
 10 25  1  0
 11 26  1  0
 11 27  1  0
 13 28  1  0
 13 29  1  0
 13 30  1  0
 14 31  1  0
 14 32  1  0
 14 33  1  0
M  END
>  <input_smiles>  (12) 
CN(C)CCc1c[nH]c2cccc(C)c12

>  <prot_variant_index>  (12) 
0

>  <SMILES>  (12) 
Cc1cccc2[nH]cc(CCN(C)C)c12

>  <ALIGN_METHOD>  (12) 
MCS

>  <ALIGN_STATUS>  (12) 
OK

$$$$
DMT__p1
     RDKit          3D

 34 35  0  0  0  0  0  0  0  0999 V2000
  -23.9042  -16.7122    9.0398 C   0  0  0  0  0  0  0  0  0  0  0  0
  -24.7118  -15.4430    9.0757 C   0  0  0  0  0  0  0  0  0  0  0  0
  -25.2608  -15.0587   10.3201 C   0  0  0  0  0  0  0  0  0  0  0  0
  -25.9734  -13.8753   10.4763 C   0  0  0  0  0  0  0  0  0  0  0  0
  -26.1617  -13.0164    9.3996 C   0  0  0  0  0  0  0  0  0  0  0  0
  -25.6352  -13.3990    8.1618 C   0  0  0  0  0  0  0  0  0  0  0  0
  -25.6615  -12.7131    6.9718 N   0  0  0  0  0  0  0  0  0  0  0  0
  -25.0720  -13.4565    5.9904 C   0  0  0  0  0  0  0  0  0  0  0  0
  -24.6266  -14.6430    6.5449 C   0  0  0  0  0  0  0  0  0  0  0  0
  -23.9753  -15.7422    5.7588 C   0  0  0  0  0  0  0  0  0  0  0  0
  -24.9637  -16.4286    4.8024 C   0  0  0  0  0  0  0  0  0  0  0  0
  -26.1057  -17.0904    5.5635 N   0  0  0  0  0  0  0  0  0  0  0  0
  -27.4106  -16.9965    4.8264 C   0  0  0  0  0  0  0  0  0  0  0  0
  -25.7982  -18.5020    5.9662 C   0  0  0  0  0  0  0  0  0  0  0  0
  -24.9386  -14.5952    7.9537 C   0  0  0  0  0  0  0  0  0  0  0  0
  -22.9370  -16.5337    8.5613 H   0  0  0  0  0  0  0  0  0  0  0  0
  -23.6968  -17.0908   10.0465 H   0  0  0  0  0  0  0  0  0  0  0  0
  -24.4514  -17.4865    8.4982 H   0  0  0  0  0  0  0  0  0  0  0  0
  -25.1102  -15.6854   11.1990 H   0  0  0  0  0  0  0  0  0  0  0  0
  -26.3659  -13.6060   11.4550 H   0  0  0  0  0  0  0  0  0  0  0  0
  -26.6925  -12.0775    9.5283 H   0  0  0  0  0  0  0  0  0  0  0  0
  -26.0604  -11.7901    6.8537 H   0  0  0  0  0  0  0  0  0  0  0  0
  -25.0143  -13.0690    4.9807 H   0  0  0  0  0  0  0  0  0  0  0  0
  -23.1572  -15.3122    5.1672 H   0  0  0  0  0  0  0  0  0  0  0  0
  -23.5171  -16.4870    6.4115 H   0  0  0  0  0  0  0  0  0  0  0  0
  -25.4055  -15.6926    4.1206 H   0  0  0  0  0  0  0  0  0  0  0  0
  -24.4724  -17.2010    4.2007 H   0  0  0  0  0  0  0  0  0  0  0  0
  -26.2415  -16.5466    6.4308 H   0  0  0  0  0  0  0  0  0  0  0  0
  -27.3102  -17.5214    3.8727 H   0  0  0  0  0  0  0  0  0  0  0  0
  -27.6379  -15.9383    4.6716 H   0  0  0  0  0  0  0  0  0  0  0  0
  -28.1859  -17.4538    5.4468 H   0  0  0  0  0  0  0  0  0  0  0  0
  -24.8350  -18.5160    6.4793 H   0  0  0  0  0  0  0  0  0  0  0  0
  -26.5885  -18.8411    6.6409 H   0  0  0  0  0  0  0  0  0  0  0  0
  -25.7612  -19.1209    5.0655 H   0  0  0  0  0  0  0  0  0  0  0  0
  1  2  1  0
  2  3  2  0
  3  4  1  0
  4  5  2  0
  5  6  1  0
  6  7  1  0
  7  8  1  0
  8  9  2  0
  9 10  1  0
 10 11  1  0
 11 12  1  0
 12 13  1  0
 12 14  1  0
  9 15  1  0
 15  2  1  0
 15  6  2  0
  1 16  1  0
  1 17  1  0
  1 18  1  0
  3 19  1  0
  4 20  1  0
  5 21  1  0
  7 22  1  0
  8 23  1  0
 10 24  1  0
 10 25  1  0
 11 26  1  0
 11 27  1  0
 12 28  1  0
 13 29  1  0
 13 30  1  0
 13 31  1  0
 14 32  1  0
 14 33  1  0
 14 34  1  0
M  CHG  1  12   1
M  END
>  <input_smiles>  (13) 
CN(C)CCc1c[nH]c2cccc(C)c12

>  <prot_variant_index>  (13) 
1

>  <SMILES>  (13) 
Cc1cccc2[nH]cc(CC[NH+](C)C)c12

>  <ALIGN_METHOD>  (13) 
MCS

>  <ALIGN_STATUS>  (13) 
OK

$$$$
LSD__p0
     RDKit          3D

 54 58  0  0  0  0  0  0  0  0999 V2000
  -23.5305  -14.8953    1.6912 C   0  0  0  0  0  0  0  0  0  0  0  0
  -23.6671  -15.7684    2.8632 N   0  0  0  0  0  0  0  0  0  0  0  0
  -24.9491  -16.0995    3.2893 C   0  0  0  0  0  0  0  0  0  0  0  0
  -25.2112  -16.6607    4.4773 C   0  0  0  0  0  0  0  0  0  0  0  0
  -26.3308  -17.6363    4.6578 C   0  0  0  0  0  0  0  0  0  0  0  0
  -25.7230  -18.9463    5.2066 C   0  0  0  0  0  0  0  0  0  0  0  0
  -24.1692  -19.1141    4.9888 C   0  0  1  0  0  0  0  0  0  0  0  0
  -23.8244  -19.9447    3.7514 C   0  0  0  0  0  0  0  0  0  0  0  0
  -24.5282  -19.8324    2.5422 C   0  0  0  0  0  0  0  0  0  0  0  0
  -24.1878  -20.6188    1.4373 C   0  0  0  0  0  0  0  0  0  0  0  0
  -23.1387  -21.5287    1.5294 C   0  0  0  0  0  0  0  0  0  0  0  0
  -22.7185  -22.4914    0.1671 Cl  0  0  0  0  0  0  0  0  0  0  0  0
  -22.4259  -21.6599    2.7167 C   0  0  0  0  0  0  0  0  0  0  0  0
  -22.7680  -20.8736    3.8198 C   0  0  0  0  0  0  0  0  0  0  0  0
  -23.3426  -17.8903    5.2436 N   0  0  0  0  0  0  0  0  0  0  0  0
  -22.3103  -17.5064    4.2552 C   0  0  0  0  0  0  0  0  0  0  0  0
  -22.6586  -16.8795    2.8688 C   0  0  0  0  0  0  0  0  0  0  0  0
  -24.2015  -16.7379    5.5956 C   0  0  1  0  0  0  0  0  0  0  0  0
  -23.4802  -15.4173    5.9918 C   0  0  0  0  0  0  0  0  0  0  0  0
  -24.4028  -14.4177    6.6358 C   0  0  0  0  0  0  0  0  0  0  0  0
  -25.0159  -13.3500    6.0093 C   0  0  0  0  0  0  0  0  0  0  0  0
  -25.7760  -12.6869    6.9323 N   0  0  0  0  0  0  0  0  0  0  0  0
  -25.6738  -13.2966    8.1607 C   0  0  0  0  0  0  0  0  0  0  0  0
  -26.2711  -12.9685    9.3838 C   0  0  0  0  0  0  0  0  0  0  0  0
  -25.9812  -13.7797   10.4847 C   0  0  0  0  0  0  0  0  0  0  0  0
  -25.1281  -14.8740   10.3646 C   0  0  0  0  0  0  0  0  0  0  0  0
  -24.5397  -15.1876    9.1340 C   0  0  0  0  0  0  0  0  0  0  0  0
  -24.8153  -14.3856    8.0071 C   0  0  0  0  0  0  0  0  0  0  0  0
  -23.7639  -15.4404    0.7701 H   0  0  0  0  0  0  0  0  0  0  0  0
  -24.2056  -14.0361    1.7717 H   0  0  0  0  0  0  0  0  0  0  0  0
  -22.5104  -14.5034    1.6212 H   0  0  0  0  0  0  0  0  0  0  0  0
  -25.6879  -16.0835    2.4908 H   0  0  0  0  0  0  0  0  0  0  0  0
  -26.8489  -17.8356    3.7130 H   0  0  0  0  0  0  0  0  0  0  0  0
  -27.0775  -17.2431    5.3567 H   0  0  0  0  0  0  0  0  0  0  0  0
  -25.9078  -18.9600    6.2911 H   0  0  0  0  0  0  0  0  0  0  0  0
  -26.2779  -19.8081    4.8151 H   0  0  0  0  0  0  0  0  0  0  0  0
  -23.8910  -19.7743    5.8251 H   0  0  0  0  0  0  0  0  0  0  0  0
  -25.3410  -19.1199    2.4368 H   0  0  0  0  0  0  0  0  0  0  0  0
  -24.7441  -20.5119    0.5098 H   0  0  0  0  0  0  0  0  0  0  0  0
  -21.6056  -22.3682    2.7932 H   0  0  0  0  0  0  0  0  0  0  0  0
  -22.1997  -20.9827    4.7423 H   0  0  0  0  0  0  0  0  0  0  0  0
  -21.6457  -18.3609    4.0798 H   0  0  0  0  0  0  0  0  0  0  0  0
  -21.6423  -16.7932    4.7571 H   0  0  0  0  0  0  0  0  0  0  0  0
  -22.9940  -17.6547    2.1737 H   0  0  0  0  0  0  0  0  0  0  0  0
  -21.7158  -16.4974    2.4555 H   0  0  0  0  0  0  0  0  0  0  0  0
  -24.7311  -17.0167    6.5186 H   0  0  0  0  0  0  0  0  0  0  0  0
  -22.9776  -14.9362    5.1468 H   0  0  0  0  0  0  0  0  0  0  0  0
  -22.6859  -15.6543    6.7129 H   0  0  0  0  0  0  0  0  0  0  0  0
  -24.9757  -13.0188    4.9798 H   0  0  0  0  0  0  0  0  0  0  0  0
  -26.3357  -11.8676    6.7443 H   0  0  0  0  0  0  0  0  0  0  0  0
  -26.9355  -12.1164    9.4805 H   0  0  0  0  0  0  0  0  0  0  0  0
  -26.4286  -13.5514   11.4493 H   0  0  0  0  0  0  0  0  0  0  0  0
  -24.9149  -15.4917   11.2332 H   0  0  0  0  0  0  0  0  0  0  0  0
  -23.8756  -16.0427    9.0506 H   0  0  0  0  0  0  0  0  0  0  0  0
  1  2  1  0
  2  3  1  0
  3  4  2  0
  4  5  1  0
  5  6  1  0
  6  7  1  0
  7  8  1  0
  8  9  2  0
  9 10  1  0
 10 11  2  0
 11 12  1  0
 11 13  1  0
 13 14  2  0
  7 15  1  0
 15 16  1  0
 16 17  1  0
 15 18  1  0
 18 19  1  0
 19 20  1  0
 20 21  2  0
 21 22  1  0
 22 23  1  0
 23 24  2  0
 24 25  1  0
 25 26  2  0
 26 27  1  0
 27 28  2  0
 17  2  1  0
 28 20  1  0
 18  4  1  0
 28 23  1  0
 14  8  1  0
  1 29  1  0
  1 30  1  0
  1 31  1  0
  3 32  1  0
  5 33  1  0
  5 34  1  0
  6 35  1  0
  6 36  1  0
  7 37  1  1
  9 38  1  0
 10 39  1  0
 13 40  1  0
 14 41  1  0
 16 42  1  0
 16 43  1  0
 17 44  1  0
 17 45  1  0
 18 46  1  1
 19 47  1  0
 19 48  1  0
 21 49  1  0
 22 50  1  0
 24 51  1  0
 25 52  1  0
 26 53  1  0
 27 54  1  0
M  END
>  <input_smiles>  (14) 
CN1CCN(C2CC3=CNC4=CC=CC=C34)C(CCC2=C1)c5ccc(Cl)cc5

>  <prot_variant_index>  (14) 
0

>  <SMILES>  (14) 
CN1C=C2CC[C@@H](c3ccc(Cl)cc3)N(CC1)[C@H]2Cc1c[nH]c2ccccc12

>  <ALIGN_METHOD>  (14) 
MCS

>  <ALIGN_STATUS>  (14) 
OK

$$$$
LSD__p1
     RDKit          3D

 55 59  0  0  0  0  0  0  0  0999 V2000
  -24.2675  -16.2234    0.4661 C   0  0  0  0  0  0  0  0  0  0  0  0
  -24.3647  -16.2488    1.9683 N   0  0  2  0  0  0  0  0  0  0  0  0
  -23.2207  -16.9103    2.5377 C   0  0  0  0  0  0  0  0  0  0  0  0
  -23.0831  -16.8839    3.8764 C   0  0  0  0  0  0  0  0  0  0  0  0
  -22.2151  -17.8792    4.5964 C   0  0  0  0  0  0  0  0  0  0  0  0
  -22.9666  -18.5369    5.7734 C   0  0  0  0  0  0  0  0  0  0  0  0
  -24.5314  -18.4279    5.7625 C   0  0  1  0  0  0  0  0  0  0  0  0
  -25.1405  -18.5274    7.1685 C   0  0  0  0  0  0  0  0  0  0  0  0
  -24.6391  -19.4567    8.1000 C   0  0  0  0  0  0  0  0  0  0  0  0
  -25.2024  -19.5816    9.3747 C   0  0  0  0  0  0  0  0  0  0  0  0
  -26.2889  -18.7912    9.7331 C   0  0  0  0  0  0  0  0  0  0  0  0
  -26.9715  -18.9326   11.3043 Cl  0  0  0  0  0  0  0  0  0  0  0  0
  -26.8243  -17.8880    8.8230 C   0  0  0  0  0  0  0  0  0  0  0  0
  -26.2582  -17.7631    7.5499 C   0  0  0  0  0  0  0  0  0  0  0  0
  -25.0778  -17.2651    4.9892 N   0  0  0  0  0  0  0  0  0  0  0  0
  -25.6933  -17.7450    3.7116 C   0  0  0  0  0  0  0  0  0  0  0  0
  -25.7255  -16.8134    2.4545 C   0  0  0  0  0  0  0  0  0  0  0  0
  -24.0879  -16.1990    4.7709 C   0  0  1  0  0  0  0  0  0  0  0  0
  -23.4922  -15.4439    5.9954 C   0  0  0  0  0  0  0  0  0  0  0  0
  -24.4284  -14.4455    6.6205 C   0  0  0  0  0  0  0  0  0  0  0  0
  -25.0190  -13.3566    6.0034 C   0  0  0  0  0  0  0  0  0  0  0  0
  -25.7798  -12.6935    6.9306 N   0  0  0  0  0  0  0  0  0  0  0  0
  -25.6831  -13.3101    8.1540 C   0  0  0  0  0  0  0  0  0  0  0  0
  -26.2751  -12.9751    9.3779 C   0  0  0  0  0  0  0  0  0  0  0  0
  -25.9806  -13.7781   10.4827 C   0  0  0  0  0  0  0  0  0  0  0  0
  -25.1216  -14.8664   10.3667 C   0  0  0  0  0  0  0  0  0  0  0  0
  -24.5364  -15.1842    9.1354 C   0  0  0  0  0  0  0  0  0  0  0  0
  -24.8281  -14.4010    7.9987 C   0  0  0  0  0  0  0  0  0  0  0  0
  -23.3363  -15.7204    0.1883 H   0  0  0  0  0  0  0  0  0  0  0  0
  -25.1210  -15.6539    0.0878 H   0  0  0  0  0  0  0  0  0  0  0  0
  -24.2902  -17.2508    0.0898 H   0  0  0  0  0  0  0  0  0  0  0  0
  -24.3437  -15.2574    2.2471 H   0  0  0  0  0  0  0  0  0  0  0  0
  -22.5601  -17.5277    1.9258 H   0  0  0  0  0  0  0  0  0  0  0  0
  -21.8787  -18.6662    3.9100 H   0  0  0  0  0  0  0  0  0  0  0  0
  -21.3122  -17.3819    4.9700 H   0  0  0  0  0  0  0  0  0  0  0  0
  -22.6846  -19.5986    5.8028 H   0  0  0  0  0  0  0  0  0  0  0  0
  -22.5614  -18.1209    6.7045 H   0  0  0  0  0  0  0  0  0  0  0  0
  -24.8859  -19.3552    5.2885 H   0  0  0  0  0  0  0  0  0  0  0  0
  -23.8031  -20.1057    7.8491 H   0  0  0  0  0  0  0  0  0  0  0  0
  -24.7908  -20.2996   10.0796 H   0  0  0  0  0  0  0  0  0  0  0  0
  -27.6714  -17.2646    9.0977 H   0  0  0  0  0  0  0  0  0  0  0  0
  -26.6994  -17.0384    6.8690 H   0  0  0  0  0  0  0  0  0  0  0  0
  -26.7290  -18.0233    3.9430 H   0  0  0  0  0  0  0  0  0  0  0  0
  -25.2071  -18.6712    3.3729 H   0  0  0  0  0  0  0  0  0  0  0  0
  -26.3586  -15.9383    2.6390 H   0  0  0  0  0  0  0  0  0  0  0  0
  -26.1553  -17.3746    1.6165 H   0  0  0  0  0  0  0  0  0  0  0  0
  -24.5977  -15.3989    4.2263 H   0  0  0  0  0  0  0  0  0  0  0  0
  -23.1385  -16.1268    6.7687 H   0  0  0  0  0  0  0  0  0  0  0  0
  -22.6029  -14.8891    5.6644 H   0  0  0  0  0  0  0  0  0  0  0  0
  -24.9599  -12.9835    4.9910 H   0  0  0  0  0  0  0  0  0  0  0  0
  -26.3177  -11.8545    6.7602 H   0  0  0  0  0  0  0  0  0  0  0  0
  -26.9371  -12.1207    9.4764 H   0  0  0  0  0  0  0  0  0  0  0  0
  -26.4250  -13.5457   11.4483 H   0  0  0  0  0  0  0  0  0  0  0  0
  -24.9046  -15.4793   11.2386 H   0  0  0  0  0  0  0  0  0  0  0  0
  -23.8734  -16.0412    9.0658 H   0  0  0  0  0  0  0  0  0  0  0  0
  1  2  1  0
  2  3  1  0
  3  4  2  0
  4  5  1  0
  5  6  1  0
  6  7  1  0
  7  8  1  0
  8  9  2  0
  9 10  1  0
 10 11  2  0
 11 12  1  0
 11 13  1  0
 13 14  2  0
  7 15  1  0
 15 16  1  0
 16 17  1  0
 15 18  1  0
 18 19  1  0
 19 20  1  0
 20 21  2  0
 21 22  1  0
 22 23  1  0
 23 24  2  0
 24 25  1  0
 25 26  2  0
 26 27  1  0
 27 28  2  0
 17  2  1  0
 28 20  1  0
 18  4  1  0
 28 23  1  0
 14  8  1  0
  1 29  1  0
  1 30  1  0
  1 31  1  0
  2 32  1  1
  3 33  1  0
  5 34  1  0
  5 35  1  0
  6 36  1  0
  6 37  1  0
  7 38  1  6
  9 39  1  0
 10 40  1  0
 13 41  1  0
 14 42  1  0
 16 43  1  0
 16 44  1  0
 17 45  1  0
 17 46  1  0
 18 47  1  6
 19 48  1  0
 19 49  1  0
 21 50  1  0
 22 51  1  0
 24 52  1  0
 25 53  1  0
 26 54  1  0
 27 55  1  0
M  CHG  1   2   1
M  END
>  <input_smiles>  (15) 
CN1CCN(C2CC3=CNC4=CC=CC=C34)C(CCC2=C1)c5ccc(Cl)cc5

>  <prot_variant_index>  (15) 
1

>  <SMILES>  (15) 
C[N@@H+]1C=C2CC[C@@H](c3ccc(Cl)cc3)N(CC1)[C@H]2Cc1c[nH]c2ccccc12

>  <ALIGN_METHOD>  (15) 
MCS

>  <ALIGN_STATUS>  (15) 
OK

$$$$
LSD__p2
     RDKit          3D

 55 59  0  0  0  0  0  0  0  0999 V2000
  -21.9971  -16.3683    2.0454 C   0  0  0  0  0  0  0  0  0  0  0  0
  -21.7528  -16.0248    3.4556 N   0  0  0  0  0  0  0  0  0  0  0  0
  -21.2423  -14.7787    3.7844 C   0  0  0  0  0  0  0  0  0  0  0  0
  -21.2262  -14.2789    5.0268 C   0  0  0  0  0  0  0  0  0  0  0  0
  -20.1240  -13.3831    5.5080 C   0  0  0  0  0  0  0  0  0  0  0  0
  -19.1334  -14.3027    6.2629 C   0  0  0  0  0  0  0  0  0  0  0  0
  -19.7964  -15.3102    7.2629 C   0  0  2  0  0  0  0  0  0  0  0  0
  -18.8763  -16.3167    7.9392 C   0  0  0  0  0  0  0  0  0  0  0  0
  -17.6291  -16.6915    7.4114 C   0  0  0  0  0  0  0  0  0  0  0  0
  -16.8330  -17.6429    8.0594 C   0  0  0  0  0  0  0  0  0  0  0  0
  -17.2726  -18.2340    9.2399 C   0  0  0  0  0  0  0  0  0  0  0  0
  -16.2946  -19.4058   10.0283 Cl  0  0  0  0  0  0  0  0  0  0  0  0
  -18.5028  -17.8778    9.7827 C   0  0  0  0  0  0  0  0  0  0  0  0
  -19.2988  -16.9251    9.1386 C   0  0  0  0  0  0  0  0  0  0  0  0
  -21.0279  -16.0072    6.6282 N   0  0  2  0  0  0  0  0  0  0  0  0
  -20.6456  -17.0481    5.5544 C   0  0  0  0  0  0  0  0  0  0  0  0
  -21.6200  -17.2132    4.3513 C   0  0  0  0  0  0  0  0  0  0  0  0
  -21.9617  -14.9094    6.1653 C   0  0  2  0  0  0  0  0  0  0  0  0
  -23.4324  -15.3737    5.9973 C   0  0  0  0  0  0  0  0  0  0  0  0
  -24.3861  -14.4055    6.6372 C   0  0  0  0  0  0  0  0  0  0  0  0
  -25.0102  -13.3457    6.0079 C   0  0  0  0  0  0  0  0  0  0  0  0
  -25.7847  -12.6934    6.9297 N   0  0  0  0  0  0  0  0  0  0  0  0
  -25.6648  -13.2962    8.1602 C   0  0  0  0  0  0  0  0  0  0  0  0
  -26.2591  -12.9637    9.3829 C   0  0  0  0  0  0  0  0  0  0  0  0
  -25.9701  -13.7728   10.4845 C   0  0  0  0  0  0  0  0  0  0  0  0
  -25.1241  -14.8723   10.3643 C   0  0  0  0  0  0  0  0  0  0  0  0
  -24.5368  -15.1915    9.1336 C   0  0  0  0  0  0  0  0  0  0  0  0
  -24.8067  -14.3863    8.0068 C   0  0  0  0  0  0  0  0  0  0  0  0
  -22.8057  -17.1027    1.9726 H   0  0  0  0  0  0  0  0  0  0  0  0
  -22.3027  -15.4848    1.4733 H   0  0  0  0  0  0  0  0  0  0  0  0
  -21.0928  -16.7890    1.5930 H   0  0  0  0  0  0  0  0  0  0  0  0
  -20.6801  -14.3140    2.9730 H   0  0  0  0  0  0  0  0  0  0  0  0
  -19.6091  -12.8786    4.6828 H   0  0  0  0  0  0  0  0  0  0  0  0
  -20.5179  -12.6040    6.1703 H   0  0  0  0  0  0  0  0  0  0  0  0
  -18.5541  -14.8467    5.5068 H   0  0  0  0  0  0  0  0  0  0  0  0
  -18.4099  -13.6795    6.8036 H   0  0  0  0  0  0  0  0  0  0  0  0
  -20.2118  -14.6992    8.0783 H   0  0  0  0  0  0  0  0  0  0  0  0
  -17.2366  -16.2580    6.4939 H   0  0  0  0  0  0  0  0  0  0  0  0
  -15.8653  -17.9145    7.6401 H   0  0  0  0  0  0  0  0  0  0  0  0
  -18.8416  -18.3339   10.7113 H   0  0  0  0  0  0  0  0  0  0  0  0
  -20.2476  -16.6567    9.6017 H   0  0  0  0  0  0  0  0  0  0  0  0
  -21.5069  -16.5082    7.3816 H   0  0  0  0  0  0  0  0  0  0  0  0
  -20.5632  -18.0000    6.0921 H   0  0  0  0  0  0  0  0  0  0  0  0
  -19.6531  -16.7900    5.1709 H   0  0  0  0  0  0  0  0  0  0  0  0
  -22.6108  -17.5254    4.6955 H   0  0  0  0  0  0  0  0  0  0  0  0
  -21.2338  -18.0507    3.7555 H   0  0  0  0  0  0  0  0  0  0  0  0
  -21.9828  -14.1918    6.9980 H   0  0  0  0  0  0  0  0  0  0  0  0
  -23.5832  -16.3536    6.4678 H   0  0  0  0  0  0  0  0  0  0  0  0
  -23.7261  -15.4747    4.9470 H   0  0  0  0  0  0  0  0  0  0  0  0
  -24.9788  -13.0021    4.9808 H   0  0  0  0  0  0  0  0  0  0  0  0
  -26.3639  -11.8845    6.7394 H   0  0  0  0  0  0  0  0  0  0  0  0
  -26.9301  -12.1152    9.4784 H   0  0  0  0  0  0  0  0  0  0  0  0
  -26.4242  -13.5463   11.4472 H   0  0  0  0  0  0  0  0  0  0  0  0
  -24.9305  -15.4938   11.2357 H   0  0  0  0  0  0  0  0  0  0  0  0
  -23.8997  -16.0659    9.0615 H   0  0  0  0  0  0  0  0  0  0  0  0
  1  2  1  0
  2  3  1  0
  3  4  2  0
  4  5  1  0
  5  6  1  0
  6  7  1  0
  7  8  1  0
  8  9  2  0
  9 10  1  0
 10 11  2  0
 11 12  1  0
 11 13  1  0
 13 14  2  0
  7 15  1  0
 15 16  1  0
 16 17  1  0
 15 18  1  0
 18 19  1  0
 19 20  1  0
 20 21  2  0
 21 22  1  0
 22 23  1  0
 23 24  2  0
 24 25  1  0
 25 26  2  0
 26 27  1  0
 27 28  2  0
 17  2  1  0
 28 20  1  0
 18  4  1  0
 28 23  1  0
 14  8  1  0
  1 29  1  0
  1 30  1  0
  1 31  1  0
  3 32  1  0
  5 33  1  0
  5 34  1  0
  6 35  1  0
  6 36  1  0
  7 37  1  1
  9 38  1  0
 10 39  1  0
 13 40  1  0
 14 41  1  0
 15 42  1  1
 16 43  1  0
 16 44  1  0
 17 45  1  0
 17 46  1  0
 18 47  1  1
 19 48  1  0
 19 49  1  0
 21 50  1  0
 22 51  1  0
 24 52  1  0
 25 53  1  0
 26 54  1  0
 27 55  1  0
M  CHG  1  15   1
M  END
>  <input_smiles>  (16) 
CN1CCN(C2CC3=CNC4=CC=CC=C34)C(CCC2=C1)c5ccc(Cl)cc5

>  <prot_variant_index>  (16) 
2

>  <SMILES>  (16) 
CN1C=C2CC[C@H](c3ccc(Cl)cc3)[N@H+](CC1)[C@@H]2Cc1c[nH]c2ccccc12

>  <ALIGN_METHOD>  (16) 
MCS

>  <ALIGN_STATUS>  (16) 
OK

$$$$
LSD__p3
     RDKit          3D

 56 60  0  0  0  0  0  0  0  0999 V2000
  -24.0363  -17.1908    1.5968 C   0  0  0  0  0  0  0  0  0  0  0  0
  -24.1419  -16.8996    3.0953 N   0  0  2  0  0  0  0  0  0  0  0  0
  -23.7833  -18.0786    3.8308 C   0  0  0  0  0  0  0  0  0  0  0  0
  -23.8534  -18.0808    5.1721 C   0  0  0  0  0  0  0  0  0  0  0  0
  -24.0477  -19.3909    5.9126 C   0  0  0  0  0  0  0  0  0  0  0  0
  -25.5573  -19.5191    6.2421 C   0  0  0  0  0  0  0  0  0  0  0  0
  -26.2182  -18.2226    6.8160 C   0  0  2  0  0  0  0  0  0  0  0  0
  -27.7243  -18.2170    6.9998 C   0  0  0  0  0  0  0  0  0  0  0  0
  -28.5826  -19.1327    6.3704 C   0  0  0  0  0  0  0  0  0  0  0  0
  -29.9684  -19.0539    6.5516 C   0  0  0  0  0  0  0  0  0  0  0  0
  -30.5133  -18.0642    7.3641 C   0  0  0  0  0  0  0  0  0  0  0  0
  -32.2145  -17.9665    7.5719 Cl  0  0  0  0  0  0  0  0  0  0  0  0
  -29.6818  -17.1535    8.0062 C   0  0  0  0  0  0  0  0  0  0  0  0
  -28.2976  -17.2290    7.8280 C   0  0  0  0  0  0  0  0  0  0  0  0
  -25.7506  -16.9852    5.9878 N   0  0  2  0  0  0  0  0  0  0  0  0
  -26.3720  -16.9260    4.5847 C   0  0  0  0  0  0  0  0  0  0  0  0
  -25.5225  -16.2806    3.4409 C   0  0  0  0  0  0  0  0  0  0  0  0
  -24.2455  -16.9406    6.0641 C   0  0  2  0  0  0  0  0  0  0  0  0
  -23.6291  -15.5206    5.9451 C   0  0  0  0  0  0  0  0  0  0  0  0
  -24.4598  -14.4645    6.6114 C   0  0  0  0  0  0  0  0  0  0  0  0
  -25.0439  -13.3738    5.9956 C   0  0  0  0  0  0  0  0  0  0  0  0
  -25.7567  -12.6744    6.9370 N   0  0  0  0  0  0  0  0  0  0  0  0
  -25.6864  -13.3179    8.1494 C   0  0  0  0  0  0  0  0  0  0  0  0
  -26.2897  -12.9906    9.3686 C   0  0  0  0  0  0  0  0  0  0  0  0
  -26.0003  -13.7956   10.4720 C   0  0  0  0  0  0  0  0  0  0  0  0
  -25.1275  -14.8734   10.3620 C   0  0  0  0  0  0  0  0  0  0  0  0
  -24.5308  -15.1869    9.1351 C   0  0  0  0  0  0  0  0  0  0  0  0
  -24.8276  -14.4056    7.9976 C   0  0  0  0  0  0  0  0  0  0  0  0
  -24.7779  -17.9516    1.3357 H   0  0  0  0  0  0  0  0  0  0  0  0
  -23.0180  -17.5314    1.3861 H   0  0  0  0  0  0  0  0  0  0  0  0
  -24.2303  -16.2539    1.0670 H   0  0  0  0  0  0  0  0  0  0  0  0
  -23.4144  -16.1771    3.2133 H   0  0  0  0  0  0  0  0  0  0  0  0
  -23.6078  -19.0233    3.3038 H   0  0  0  0  0  0  0  0  0  0  0  0
  -23.4483  -19.4025    6.8304 H   0  0  0  0  0  0  0  0  0  0  0  0
  -23.7280  -20.2528    5.3157 H   0  0  0  0  0  0  0  0  0  0  0  0
  -25.7000  -20.3430    6.9524 H   0  0  0  0  0  0  0  0  0  0  0  0
  -26.0656  -19.8273    5.3205 H   0  0  0  0  0  0  0  0  0  0  0  0
  -25.7927  -18.0712    7.8187 H   0  0  0  0  0  0  0  0  0  0  0  0
  -28.2140  -19.9378    5.7392 H   0  0  0  0  0  0  0  0  0  0  0  0
  -30.6228  -19.7760    6.0649 H   0  0  0  0  0  0  0  0  0  0  0  0
  -30.1073  -16.3906    8.6563 H   0  0  0  0  0  0  0  0  0  0  0  0
  -27.6799  -16.5106    8.3682 H   0  0  0  0  0  0  0  0  0  0  0  0
  -26.1137  -16.1758    6.5174 H   0  0  0  0  0  0  0  0  0  0  0  0
  -27.3024  -16.3590    4.7013 H   0  0  0  0  0  0  0  0  0  0  0  0
  -26.6407  -17.9438    4.2854 H   0  0  0  0  0  0  0  0  0  0  0  0
  -25.3316  -15.2242    3.6490 H   0  0  0  0  0  0  0  0  0  0  0  0
  -26.1214  -16.3161    2.5228 H   0  0  0  0  0  0  0  0  0  0  0  0
  -23.9906  -17.2211    7.0951 H   0  0  0  0  0  0  0  0  0  0  0  0
  -22.6360  -15.5348    6.4145 H   0  0  0  0  0  0  0  0  0  0  0  0
  -23.4400  -15.2203    4.9152 H   0  0  0  0  0  0  0  0  0  0  0  0
  -24.9974  -12.9980    4.9811 H   0  0  0  0  0  0  0  0  0  0  0  0
  -26.2536  -11.8041    6.7816 H   0  0  0  0  0  0  0  0  0  0  0  0
  -26.9438  -12.1285    9.4720 H   0  0  0  0  0  0  0  0  0  0  0  0
  -26.4404  -13.5549   11.4394 H   0  0  0  0  0  0  0  0  0  0  0  0
  -24.8899  -15.4588   11.2492 H   0  0  0  0  0  0  0  0  0  0  0  0
  -23.8220  -16.0083    9.0983 H   0  0  0  0  0  0  0  0  0  0  0  0
  1  2  1  0
  2  3  1  0
  3  4  2  0
  4  5  1  0
  5  6  1  0
  6  7  1  0
  7  8  1  0
  8  9  2  0
  9 10  1  0
 10 11  2  0
 11 12  1  0
 11 13  1  0
 13 14  2  0
  7 15  1  0
 15 16  1  0
 16 17  1  0
 15 18  1  0
 18 19  1  0
 19 20  1  0
 20 21  2  0
 21 22  1  0
 22 23  1  0
 23 24  2  0
 24 25  1  0
 25 26  2  0
 26 27  1  0
 27 28  2  0
 17  2  1  0
 28 20  1  0
 18  4  1  0
 28 23  1  0
 14  8  1  0
  1 29  1  0
  1 30  1  0
  1 31  1  0
  2 32  1  1
  3 33  1  0
  5 34  1  0
  5 35  1  0
  6 36  1  0
  6 37  1  0
  7 38  1  1
  9 39  1  0
 10 40  1  0
 13 41  1  0
 14 42  1  0
 15 43  1  1
 16 44  1  0
 16 45  1  0
 17 46  1  0
 17 47  1  0
 18 48  1  1
 19 49  1  0
 19 50  1  0
 21 51  1  0
 22 52  1  0
 24 53  1  0
 25 54  1  0
 26 55  1  0
 27 56  1  0
M  CHG  2   2   1  15   1
M  END
>  <input_smiles>  (17) 
CN1CCN(C2CC3=CNC4=CC=CC=C34)C(CCC2=C1)c5ccc(Cl)cc5

>  <prot_variant_index>  (17) 
3

>  <SMILES>  (17) 
C[N@@H+]1C=C2CC[C@H](c3ccc(Cl)cc3)[N@H+](CC1)[C@@H]2Cc1c[nH]c2ccccc12

>  <ALIGN_METHOD>  (17) 
MCS

>  <ALIGN_STATUS>  (17) 
OK

$$$$
DMT_like
     RDKit          3D

 31 32  0  0  0  0  0  0  0  0999 V2000
  -21.0348  -17.3558    5.9974 C   0  0  0  0  0  0  0  0  0  0  0  0
  -21.0197  -15.9176    5.5566 N   0  0  0  0  0  0  0  0  0  0  0  0
  -19.6243  -15.3512    5.6116 C   0  0  0  0  0  0  0  0  0  0  0  0
  -21.9936  -15.0376    6.3270 C   0  0  0  0  0  0  0  0  0  0  0  0
  -23.4511  -15.3859    6.0094 C   0  0  0  0  0  0  0  0  0  0  0  0
  -24.3885  -14.4093    6.6370 C   0  0  0  0  0  0  0  0  0  0  0  0
  -25.0097  -13.3488    6.0071 C   0  0  0  0  0  0  0  0  0  0  0  0
  -25.7809  -12.6915    6.9301 N   0  0  0  0  0  0  0  0  0  0  0  0
  -25.6659  -13.2967    8.1591 C   0  0  0  0  0  0  0  0  0  0  0  0
  -26.2613  -12.9653    9.3817 C   0  0  0  0  0  0  0  0  0  0  0  0
  -25.9735  -13.7749   10.4833 C   0  0  0  0  0  0  0  0  0  0  0  0
  -25.1267  -14.8733   10.3636 C   0  0  0  0  0  0  0  0  0  0  0  0
  -24.5390  -15.1912    9.1333 C   0  0  0  0  0  0  0  0  0  0  0  0
  -24.8090  -14.3864    8.0065 C   0  0  0  0  0  0  0  0  0  0  0  0
  -22.0239  -17.7709    5.7942 H   0  0  0  0  0  0  0  0  0  0  0  0
  -20.2883  -17.8989    5.4114 H   0  0  0  0  0  0  0  0  0  0  0  0
  -20.7987  -17.3972    7.0640 H   0  0  0  0  0  0  0  0  0  0  0  0
  -21.3019  -15.8955    4.5673 H   0  0  0  0  0  0  0  0  0  0  0  0
  -18.9771  -15.9817    4.9961 H   0  0  0  0  0  0  0  0  0  0  0  0
  -19.2919  -15.3446    6.6531 H   0  0  0  0  0  0  0  0  0  0  0  0
  -19.6516  -14.3387    5.2002 H   0  0  0  0  0  0  0  0  0  0  0  0
  -21.7634  -15.1476    7.3930 H   0  0  0  0  0  0  0  0  0  0  0  0
  -21.7826  -14.0034    6.0294 H   0  0  0  0  0  0  0  0  0  0  0  0
  -23.6031  -15.3944    4.9228 H   0  0  0  0  0  0  0  0  0  0  0  0
  -23.6949  -16.3923    6.3682 H   0  0  0  0  0  0  0  0  0  0  0  0
  -24.9839  -13.0036    4.9813 H   0  0  0  0  0  0  0  0  0  0  0  0
  -26.3581  -11.8813    6.7441 H   0  0  0  0  0  0  0  0  0  0  0  0
  -26.9290  -12.1146    9.4789 H   0  0  0  0  0  0  0  0  0  0  0  0
  -26.4248  -13.5456   11.4470 H   0  0  0  0  0  0  0  0  0  0  0  0
  -24.9270  -15.4932   11.2350 H   0  0  0  0  0  0  0  0  0  0  0  0
  -23.8926  -16.0595    9.0621 H   0  0  0  0  0  0  0  0  0  0  0  0
  1  2  1  0
  2  3  1  0
  2  4  1  0
  4  5  1  0
  5  6  1  0
  6  7  2  0
  7  8  1  0
  8  9  1  0
  9 10  2  0
 10 11  1  0
 11 12  2  0
 12 13  1  0
 13 14  2  0
 14  6  1  0
 14  9  1  0
  1 15  1  0
  1 16  1  0
  1 17  1  0
  2 18  1  0
  3 19  1  0
  3 20  1  0
  3 21  1  0
  4 22  1  0
  4 23  1  0
  5 24  1  0
  5 25  1  0
  7 26  1  0
  8 27  1  0
 10 28  1  0
 11 29  1  0
 12 30  1  0
 13 31  1  0
M  CHG  1   2   1
M  END
>  <SMILES>  (18) 
C[NH+](C)CCc1c[nH]c2ccccc12

>  <ALIGN_METHOD>  (18) 
MCS

>  <ALIGN_STATUS>  (18) 
OK

$$$$
DMT_like
     RDKit          3D

 30 31  0  0  0  0  0  0  0  0999 V2000
  -21.0600  -17.3041    6.1056 C   0  0  0  0  0  0  0  0  0  0  0  0
  -21.0427  -15.9483    5.5529 N   0  0  0  0  0  0  0  0  0  0  0  0
  -19.6874  -15.3972    5.6433 C   0  0  0  0  0  0  0  0  0  0  0  0
  -21.9922  -15.0565    6.2516 C   0  0  0  0  0  0  0  0  0  0  0  0
  -23.4699  -15.4070    6.0012 C   0  0  0  0  0  0  0  0  0  0  0  0
  -24.3985  -14.4158    6.6367 C   0  0  0  0  0  0  0  0  0  0  0  0
  -25.0156  -13.3516    6.0081 C   0  0  0  0  0  0  0  0  0  0  0  0
  -25.7779  -12.6892    6.9315 N   0  0  0  0  0  0  0  0  0  0  0  0
  -25.6734  -13.2974    8.1602 C   0  0  0  0  0  0  0  0  0  0  0  0
  -26.2694  -12.9677    9.3835 C   0  0  0  0  0  0  0  0  0  0  0  0
  -25.9793  -13.7783   10.4849 C   0  0  0  0  0  0  0  0  0  0  0  0
  -25.1279  -14.8737   10.3647 C   0  0  0  0  0  0  0  0  0  0  0  0
  -24.5406  -15.1888    9.1338 C   0  0  0  0  0  0  0  0  0  0  0  0
  -24.8158  -14.3870    8.0068 C   0  0  0  0  0  0  0  0  0  0  0  0
  -20.3224  -17.9356    5.5970 H   0  0  0  0  0  0  0  0  0  0  0  0
  -22.0291  -17.7861    5.9445 H   0  0  0  0  0  0  0  0  0  0  0  0
  -20.8381  -17.3164    7.1789 H   0  0  0  0  0  0  0  0  0  0  0  0
  -19.3435  -15.3126    6.6807 H   0  0  0  0  0  0  0  0  0  0  0  0
  -19.6426  -14.4044    5.1819 H   0  0  0  0  0  0  0  0  0  0  0  0
  -18.9779  -16.0265    5.0943 H   0  0  0  0  0  0  0  0  0  0  0  0
  -21.8347  -14.0291    5.8951 H   0  0  0  0  0  0  0  0  0  0  0  0
  -21.7844  -15.0434    7.3302 H   0  0  0  0  0  0  0  0  0  0  0  0
  -23.6612  -15.4421    4.9210 H   0  0  0  0  0  0  0  0  0  0  0  0
  -23.7054  -16.4028    6.3938 H   0  0  0  0  0  0  0  0  0  0  0  0
  -24.9753  -13.0124    4.9814 H   0  0  0  0  0  0  0  0  0  0  0  0
  -26.3394  -11.8705    6.7440 H   0  0  0  0  0  0  0  0  0  0  0  0
  -26.9340  -12.1157    9.4802 H   0  0  0  0  0  0  0  0  0  0  0  0
  -26.4269  -13.5494   11.4494 H   0  0  0  0  0  0  0  0  0  0  0  0
  -24.9165  -15.4919   11.2335 H   0  0  0  0  0  0  0  0  0  0  0  0
  -23.8794  -16.0459    9.0513 H   0  0  0  0  0  0  0  0  0  0  0  0
  1  2  1  0
  2  3  1  0
  2  4  1  0
  4  5  1  0
  5  6  1  0
  6  7  2  0
  7  8  1  0
  8  9  1  0
  9 10  2  0
 10 11  1  0
 11 12  2  0
 12 13  1  0
 13 14  2  0
 14  6  1  0
 14  9  1  0
  1 15  1  0
  1 16  1  0
  1 17  1  0
  3 18  1  0
  3 19  1  0
  3 20  1  0
  4 21  1  0
  4 22  1  0
  5 23  1  0
  5 24  1  0
  7 25  1  0
  8 26  1  0
 10 27  1  0
 11 28  1  0
 12 29  1  0
 13 30  1  0
M  END
>  <SMILES>  (19) 
CN(C)CCc1c[nH]c2ccccc12

>  <ALIGN_METHOD>  (19) 
MCS

>  <ALIGN_STATUS>  (19) 
OK

$$$$
Tryptamine_like
     RDKit          3D

 25 26  0  0  0  0  0  0  0  0999 V2000
  -23.3613  -17.6802    4.9761 N   0  0  0  0  0  0  0  0  0  0  0  0
  -24.2744  -16.7037    5.6287 C   0  0  0  0  0  0  0  0  0  0  0  0
  -23.5144  -15.4299    5.9915 C   0  0  0  0  0  0  0  0  0  0  0  0
  -24.4132  -14.4279    6.6297 C   0  0  0  0  0  0  0  0  0  0  0  0
  -25.0226  -13.3586    6.0032 C   0  0  0  0  0  0  0  0  0  0  0  0
  -25.7728  -12.6855    6.9324 N   0  0  0  0  0  0  0  0  0  0  0  0
  -25.6758  -13.3046    8.1560 C   0  0  0  0  0  0  0  0  0  0  0  0
  -26.2731  -12.9745    9.3779 C   0  0  0  0  0  0  0  0  0  0  0  0
  -25.9839  -13.7826   10.4801 C   0  0  0  0  0  0  0  0  0  0  0  0
  -25.1277  -14.8741   10.3632 C   0  0  0  0  0  0  0  0  0  0  0  0
  -24.5382  -15.1909    9.1334 C   0  0  0  0  0  0  0  0  0  0  0  0
  -24.8187  -14.3942    8.0034 C   0  0  0  0  0  0  0  0  0  0  0  0
  -23.8674  -18.5415    4.7300 H   0  0  0  0  0  0  0  0  0  0  0  0
  -22.5843  -17.9478    5.5947 H   0  0  0  0  0  0  0  0  0  0  0  0
  -22.9595  -17.3029    4.1074 H   0  0  0  0  0  0  0  0  0  0  0  0
  -24.6869  -17.2029    6.5112 H   0  0  0  0  0  0  0  0  0  0  0  0
  -25.0841  -16.5084    4.9180 H   0  0  0  0  0  0  0  0  0  0  0  0
  -23.0616  -14.9983    5.0897 H   0  0  0  0  0  0  0  0  0  0  0  0
  -22.6856  -15.6673    6.6700 H   0  0  0  0  0  0  0  0  0  0  0  0
  -24.9855  -13.0032    4.9811 H   0  0  0  0  0  0  0  0  0  0  0  0
  -26.3184  -11.8515    6.7560 H   0  0  0  0  0  0  0  0  0  0  0  0
  -26.9350  -12.1193    9.4768 H   0  0  0  0  0  0  0  0  0  0  0  0
  -26.4295  -13.5490   11.4453 H   0  0  0  0  0  0  0  0  0  0  0  0
  -24.9112  -15.4809   11.2398 H   0  0  0  0  0  0  0  0  0  0  0  0
  -23.8642  -16.0388    9.0719 H   0  0  0  0  0  0  0  0  0  0  0  0
  1  2  1  0
  2  3  1  0
  3  4  1  0
  4  5  2  0
  5  6  1  0
  6  7  1  0
  7  8  2  0
  8  9  1  0
  9 10  2  0
 10 11  1  0
 11 12  2  0
 12  4  1  0
 12  7  1  0
  1 13  1  0
  1 14  1  0
  1 15  1  0
  2 16  1  0
  2 17  1  0
  3 18  1  0
  3 19  1  0
  5 20  1  0
  6 21  1  0
  8 22  1  0
  9 23  1  0
 10 24  1  0
 11 25  1  0
M  CHG  1   1   1
M  END
>  <SMILES>  (20) 
[NH3+]CCc1c[nH]c2ccccc12

>  <ALIGN_METHOD>  (20) 
MCS

>  <ALIGN_STATUS>  (20) 
OK

$$$$
Tryptamine_like
     RDKit          3D

 24 25  0  0  0  0  0  0  0  0999 V2000
  -21.3905  -15.3716    7.3335 N   0  0  0  0  0  0  0  0  0  0  0  0
  -22.0113  -15.0591    6.0451 C   0  0  0  0  0  0  0  0  0  0  0  0
  -23.5013  -15.4261    5.9822 C   0  0  0  0  0  0  0  0  0  0  0  0
  -24.4041  -14.4228    6.6335 C   0  0  0  0  0  0  0  0  0  0  0  0
  -25.0187  -13.3543    6.0070 C   0  0  0  0  0  0  0  0  0  0  0  0
  -25.7721  -12.6862    6.9335 N   0  0  0  0  0  0  0  0  0  0  0  0
  -25.6738  -13.2987    8.1599 C   0  0  0  0  0  0  0  0  0  0  0  0
  -26.2721  -12.9701    9.3827 C   0  0  0  0  0  0  0  0  0  0  0  0
  -25.9841  -13.7809   10.4842 C   0  0  0  0  0  0  0  0  0  0  0  0
  -25.1302  -14.8743   10.3650 C   0  0  0  0  0  0  0  0  0  0  0  0
  -24.5419  -15.1881    9.1342 C   0  0  0  0  0  0  0  0  0  0  0  0
  -24.8167  -14.3891    8.0053 C   0  0  0  0  0  0  0  0  0  0  0  0
  -20.4016  -15.1308    7.3003 H   0  0  0  0  0  0  0  0  0  0  0  0
  -21.4434  -16.3730    7.5086 H   0  0  0  0  0  0  0  0  0  0  0  0
  -21.4783  -15.6259    5.2731 H   0  0  0  0  0  0  0  0  0  0  0  0
  -21.8665  -13.9954    5.8255 H   0  0  0  0  0  0  0  0  0  0  0  0
  -23.6700  -16.4209    6.4130 H   0  0  0  0  0  0  0  0  0  0  0  0
  -23.7876  -15.5079    4.9250 H   0  0  0  0  0  0  0  0  0  0  0  0
  -24.9828  -13.0153    4.9805 H   0  0  0  0  0  0  0  0  0  0  0  0
  -26.3269  -11.8625    6.7495 H   0  0  0  0  0  0  0  0  0  0  0  0
  -26.9346  -12.1166    9.4793 H   0  0  0  0  0  0  0  0  0  0  0  0
  -26.4306  -13.5514   11.4487 H   0  0  0  0  0  0  0  0  0  0  0  0
  -24.9127  -15.4893   11.2342 H   0  0  0  0  0  0  0  0  0  0  0  0
  -23.8687  -16.0356    9.0527 H   0  0  0  0  0  0  0  0  0  0  0  0
  1  2  1  0
  2  3  1  0
  3  4  1  0
  4  5  2  0
  5  6  1  0
  6  7  1  0
  7  8  2  0
  8  9  1  0
  9 10  2  0
 10 11  1  0
 11 12  2  0
 12  4  1  0
 12  7  1  0
  1 13  1  0
  1 14  1  0
  2 15  1  0
  2 16  1  0
  3 17  1  0
  3 18  1  0
  5 19  1  0
  6 20  1  0
  8 21  1  0
  9 22  1  0
 10 23  1  0
 11 24  1  0
M  END
>  <SMILES>  (21) 
NCCc1c[nH]c2ccccc12

>  <ALIGN_METHOD>  (21) 
MCS

>  <ALIGN_STATUS>  (21) 
OK

$$$$
MET_like
     RDKit          3D

 34 35  0  0  0  0  0  0  0  0999 V2000
  -20.8356  -15.2169    3.3743 C   0  0  0  0  0  0  0  0  0  0  0  0
  -21.0894  -16.4010    4.2881 C   0  0  0  0  0  0  0  0  0  0  0  0
  -21.0158  -16.0421    5.7571 N   0  0  1  0  0  0  0  0  0  0  0  0
  -19.6116  -15.7294    6.2117 C   0  0  0  0  0  0  0  0  0  0  0  0
  -21.9934  -14.9776    6.2375 C   0  0  0  0  0  0  0  0  0  0  0  0
  -23.4515  -15.3855    6.0083 C   0  0  0  0  0  0  0  0  0  0  0  0
  -24.3893  -14.4098    6.6369 C   0  0  0  0  0  0  0  0  0  0  0  0
  -25.0098  -13.3487    6.0072 C   0  0  0  0  0  0  0  0  0  0  0  0
  -25.7810  -12.6916    6.9301 N   0  0  0  0  0  0  0  0  0  0  0  0
  -25.6662  -13.2970    8.1590 C   0  0  0  0  0  0  0  0  0  0  0  0
  -26.2615  -12.9655    9.3816 C   0  0  0  0  0  0  0  0  0  0  0  0
  -25.9735  -13.7749   10.4833 C   0  0  0  0  0  0  0  0  0  0  0  0
  -25.1266  -14.8733   10.3637 C   0  0  0  0  0  0  0  0  0  0  0  0
  -24.5389  -15.1911    9.1333 C   0  0  0  0  0  0  0  0  0  0  0  0
  -24.8094  -14.3868    8.0063 C   0  0  0  0  0  0  0  0  0  0  0  0
  -19.8543  -14.7672    3.5500 H   0  0  0  0  0  0  0  0  0  0  0  0
  -21.5989  -14.4421    3.4897 H   0  0  0  0  0  0  0  0  0  0  0  0
  -20.8632  -15.5463    2.3303 H   0  0  0  0  0  0  0  0  0  0  0  0
  -22.0773  -16.8356    4.1081 H   0  0  0  0  0  0  0  0  0  0  0  0
  -20.3485  -17.1898    4.1174 H   0  0  0  0  0  0  0  0  0  0  0  0
  -21.2719  -16.9026    6.2601 H   0  0  0  0  0  0  0  0  0  0  0  0
  -18.9536  -16.5326    5.8702 H   0  0  0  0  0  0  0  0  0  0  0  0
  -19.3101  -14.7656    5.7950 H   0  0  0  0  0  0  0  0  0  0  0  0
  -19.6127  -15.6937    7.3045 H   0  0  0  0  0  0  0  0  0  0  0  0
  -21.8014  -14.8511    7.3099 H   0  0  0  0  0  0  0  0  0  0  0  0
  -21.7429  -14.0368    5.7355 H   0  0  0  0  0  0  0  0  0  0  0  0
  -23.6324  -16.3859    6.4201 H   0  0  0  0  0  0  0  0  0  0  0  0
  -23.6663  -15.4441    4.9350 H   0  0  0  0  0  0  0  0  0  0  0  0
  -24.9831  -13.0031    4.9815 H   0  0  0  0  0  0  0  0  0  0  0  0
  -26.3577  -11.8810    6.7443 H   0  0  0  0  0  0  0  0  0  0  0  0
  -26.9291  -12.1147    9.4788 H   0  0  0  0  0  0  0  0  0  0  0  0
  -26.4248  -13.5456   11.4469 H   0  0  0  0  0  0  0  0  0  0  0  0
  -24.9267  -15.4930   11.2351 H   0  0  0  0  0  0  0  0  0  0  0  0
  -23.8923  -16.0593    9.0621 H   0  0  0  0  0  0  0  0  0  0  0  0
  1  2  1  0
  2  3  1  0
  3  4  1  0
  3  5  1  0
  5  6  1  0
  6  7  1  0
  7  8  2  0
  8  9  1  0
  9 10  1  0
 10 11  2  0
 11 12  1  0
 12 13  2  0
 13 14  1  0
 14 15  2  0
 15  7  1  0
 15 10  1  0
  1 16  1  0
  1 17  1  0
  1 18  1  0
  2 19  1  0
  2 20  1  0
  3 21  1  1
  4 22  1  0
  4 23  1  0
  4 24  1  0
  5 25  1  0
  5 26  1  0
  6 27  1  0
  6 28  1  0
  8 29  1  0
  9 30  1  0
 11 31  1  0
 12 32  1  0
 13 33  1  0
 14 34  1  0
M  CHG  1   3   1
M  END
>  <SMILES>  (22) 
CC[N@@H+](C)CCc1c[nH]c2ccccc12

>  <ALIGN_METHOD>  (22) 
MCS

>  <ALIGN_STATUS>  (22) 
OK

$$$$
MET_like
     RDKit          3D

 33 34  0  0  0  0  0  0  0  0999 V2000
  -23.3582  -16.9397    2.6490 C   0  0  0  0  0  0  0  0  0  0  0  0
  -22.5588  -17.3904    3.8684 C   0  0  0  0  0  0  0  0  0  0  0  0
  -23.3313  -17.7619    5.0620 N   0  0  0  0  0  0  0  0  0  0  0  0
  -24.0905  -18.9961    4.8554 C   0  0  0  0  0  0  0  0  0  0  0  0
  -24.2140  -16.7004    5.5827 C   0  0  0  0  0  0  0  0  0  0  0  0
  -23.4783  -15.4149    6.0013 C   0  0  0  0  0  0  0  0  0  0  0  0
  -24.4016  -14.4187    6.6363 C   0  0  0  0  0  0  0  0  0  0  0  0
  -25.0173  -13.3536    6.0072 C   0  0  0  0  0  0  0  0  0  0  0  0
  -25.7763  -12.6883    6.9318 N   0  0  0  0  0  0  0  0  0  0  0  0
  -25.6742  -13.2976    8.1600 C   0  0  0  0  0  0  0  0  0  0  0  0
  -26.2710  -12.9685    9.3832 C   0  0  0  0  0  0  0  0  0  0  0  0
  -25.9810  -13.7792   10.4845 C   0  0  0  0  0  0  0  0  0  0  0  0
  -25.1281  -14.8737   10.3647 C   0  0  0  0  0  0  0  0  0  0  0  0
  -24.5398  -15.1878    9.1342 C   0  0  0  0  0  0  0  0  0  0  0  0
  -24.8157  -14.3865    8.0071 C   0  0  0  0  0  0  0  0  0  0  0  0
  -22.6751  -16.7202    1.8216 H   0  0  0  0  0  0  0  0  0  0  0  0
  -24.0491  -17.7156    2.3065 H   0  0  0  0  0  0  0  0  0  0  0  0
  -23.9290  -16.0286    2.8510 H   0  0  0  0  0  0  0  0  0  0  0  0
  -21.8437  -16.6023    4.1320 H   0  0  0  0  0  0  0  0  0  0  0  0
  -21.9299  -18.2416    3.5765 H   0  0  0  0  0  0  0  0  0  0  0  0
  -24.9054  -18.8726    4.1342 H   0  0  0  0  0  0  0  0  0  0  0  0
  -24.5247  -19.3399    5.8012 H   0  0  0  0  0  0  0  0  0  0  0  0
  -23.4363  -19.8024    4.5057 H   0  0  0  0  0  0  0  0  0  0  0  0
  -25.0049  -16.4587    4.8606 H   0  0  0  0  0  0  0  0  0  0  0  0
  -24.7286  -17.0912    6.4713 H   0  0  0  0  0  0  0  0  0  0  0  0
  -23.0055  -14.9440    5.1312 H   0  0  0  0  0  0  0  0  0  0  0  0
  -22.6716  -15.6593    6.7037 H   0  0  0  0  0  0  0  0  0  0  0  0
  -24.9771  -13.0135    4.9810 H   0  0  0  0  0  0  0  0  0  0  0  0
  -26.3336  -11.8665    6.7460 H   0  0  0  0  0  0  0  0  0  0  0  0
  -26.9353  -12.1163    9.4801 H   0  0  0  0  0  0  0  0  0  0  0  0
  -26.4281  -13.5506   11.4491 H   0  0  0  0  0  0  0  0  0  0  0  0
  -24.9149  -15.4913   11.2335 H   0  0  0  0  0  0  0  0  0  0  0  0
  -23.8760  -16.0435    9.0513 H   0  0  0  0  0  0  0  0  0  0  0  0
  1  2  1  0
  2  3  1  0
  3  4  1  0
  3  5  1  0
  5  6  1  0
  6  7  1  0
  7  8  2  0
  8  9  1  0
  9 10  1  0
 10 11  2  0
 11 12  1  0
 12 13  2  0
 13 14  1  0
 14 15  2  0
 15  7  1  0
 15 10  1  0
  1 16  1  0
  1 17  1  0
  1 18  1  0
  2 19  1  0
  2 20  1  0
  4 21  1  0
  4 22  1  0
  4 23  1  0
  5 24  1  0
  5 25  1  0
  6 26  1  0
  6 27  1  0
  8 28  1  0
  9 29  1  0
 11 30  1  0
 12 31  1  0
 13 32  1  0
 14 33  1  0
M  END
>  <SMILES>  (23) 
CCN(C)CCc1c[nH]c2ccccc12

>  <ALIGN_METHOD>  (23) 
MCS

>  <ALIGN_STATUS>  (23) 
OK

$$$$
Serotonin
     RDKit          3D

 25 26  0  0  0  0  0  0  0  0999 V2000
  -24.8548  -16.5885    4.4195 N   0  0  0  0  0  0  0  0  0  0  0  0
  -24.0243  -16.6956    5.6205 C   0  0  0  0  0  0  0  0  0  0  0  0
  -23.3911  -15.3613    6.0426 C   0  0  0  0  0  0  0  0  0  0  0  0
  -24.3572  -14.4053    6.6724 C   0  0  0  0  0  0  0  0  0  0  0  0
  -25.0597  -13.4073    6.0252 C   0  0  0  0  0  0  0  0  0  0  0  0
  -25.8370  -12.7591    6.9448 N   0  0  0  0  0  0  0  0  0  0  0  0
  -25.6500  -13.3019    8.1941 C   0  0  0  0  0  0  0  0  0  0  0  0
  -26.2273  -12.9554    9.4221 C   0  0  0  0  0  0  0  0  0  0  0  0
  -25.8482  -13.6938   10.5460 C   0  0  0  0  0  0  0  0  0  0  0  0
  -24.9324  -14.7312   10.4339 C   0  0  0  0  0  0  0  0  0  0  0  0
  -24.6082  -15.4110   11.5738 O   0  0  0  0  0  0  0  0  0  0  0  0
  -24.3604  -15.0730    9.2061 C   0  0  0  0  0  0  0  0  0  0  0  0
  -24.7270  -14.3401    8.0563 C   0  0  0  0  0  0  0  0  0  0  0  0
  -24.2976  -16.2371    3.6432 H   0  0  0  0  0  0  0  0  0  0  0  0
  -25.1856  -17.5135    4.1513 H   0  0  0  0  0  0  0  0  0  0  0  0
  -23.2221  -17.4130    5.4129 H   0  0  0  0  0  0  0  0  0  0  0  0
  -24.6281  -17.1091    6.4359 H   0  0  0  0  0  0  0  0  0  0  0  0
  -22.5872  -15.5699    6.7600 H   0  0  0  0  0  0  0  0  0  0  0  0
  -22.9059  -14.8858    5.1804 H   0  0  0  0  0  0  0  0  0  0  0  0
  -25.0813  -13.1185    4.9829 H   0  0  0  0  0  0  0  0  0  0  0  0
  -26.4631  -11.9930    6.7409 H   0  0  0  0  0  0  0  0  0  0  0  0
  -26.9441  -12.1455    9.5059 H   0  0  0  0  0  0  0  0  0  0  0  0
  -26.2743  -13.4552   11.5168 H   0  0  0  0  0  0  0  0  0  0  0  0
  -23.9682  -16.1041   11.3446 H   0  0  0  0  0  0  0  0  0  0  0  0
  -23.6470  -15.8840    9.1225 H   0  0  0  0  0  0  0  0  0  0  0  0
  1  2  1  0
  2  3  1  0
  3  4  1  0
  4  5  2  0
  5  6  1  0
  6  7  1  0
  7  8  2  0
  8  9  1  0
  9 10  2  0
 10 11  1  0
 10 12  1  0
 12 13  2  0
 13  4  1  0
 13  7  1  0
  1 14  1  0
  1 15  1  0
  2 16  1  0
  2 17  1  0
  3 18  1  0
  3 19  1  0
  5 20  1  0
  6 21  1  0
  8 22  1  0
  9 23  1  0
 11 24  1  0
 12 25  1  0
M  END
>  <SMILES>  (24) 
NCCc1c[nH]c2ccc(O)cc12

>  <ALIGN_METHOD>  (24) 
MCS

>  <ALIGN_STATUS>  (24) 
OK

$$$$
/home/aaron_m_kushner/5ht-platform-starter/data/custom_ligands/LSD_from_5TVN.pdb
     RDKit          3D

 49 52  0  0  1  0  0  0  0  0999 V2000
  -25.9760  -12.8170    6.9610 N   0  0  0  0  0  0  0  0  0  0  0  0
  -21.8640  -20.0230   10.8660 N   0  0  0  0  0  0  0  0  0  0  0  0
  -26.2210  -12.9890    9.3950 C   0  0  0  0  0  0  0  0  0  0  0  0
  -25.8660  -13.7760   10.4900 C   0  0  0  0  0  0  0  0  0  0  0  0
  -24.6890  -15.2200    9.0070 C   0  0  0  0  0  0  0  0  0  0  0  0
  -24.7790  -14.6110    6.7450 C   0  0  0  0  0  0  0  0  0  0  0  0
  -25.3380  -13.5970    6.0820 C   0  0  0  0  0  0  0  0  0  0  0  0
  -23.3290  -17.0780    9.7390 C   0  0  0  0  0  0  0  0  0  0  0  0
  -23.0070  -18.8370    8.1620 C   0  0  0  0  0  0  0  0  0  0  0  0
  -23.9880  -15.6910    6.3520 C   0  0  0  0  0  0  0  0  0  0  0  0
  -20.5340  -20.0170   10.2380 C   0  0  0  0  0  0  0  0  0  0  0  0
  -22.7720  -22.2560   11.3810 C   0  0  0  0  0  0  0  0  0  0  0  0
  -22.9350  -17.8090    7.1160 N   0  0  0  0  0  0  0  0  0  0  0  0
  -23.2260  -18.4270    5.8140 C   0  0  0  0  0  0  0  0  0  0  0  0
  -23.9920  -16.8260    7.3920 C   0  0  1  0  0  0  0  0  0  0  0  0
  -25.0800  -14.4300    8.0190 C   0  0  0  0  0  0  0  0  0  0  0  0
  -25.8120  -13.3390    8.1770 C   0  0  0  0  0  0  0  0  0  0  0  0
  -25.0860  -14.9140   10.3020 C   0  0  0  0  0  0  0  0  0  0  0  0
  -23.9390  -16.3500    8.7140 C   0  0  0  0  0  0  0  0  0  0  0  0
  -22.5970  -18.2470    9.5090 C   0  0  2  0  0  0  0  0  0  0  0  0
  -22.8570  -19.1710   10.5330 C   0  0  0  0  0  0  0  0  0  0  0  0
  -23.9590  -19.1900   11.0810 O   0  0  0  0  0  0  0  0  0  0  0  0
  -22.0400  -21.0270   11.9280 C   0  0  0  0  0  0  0  0  0  0  0  0
  -19.4950  -19.6690   11.3030 C   0  0  0  0  0  0  0  0  0  0  0  0
  -26.7960  -12.1423    9.5274 H   0  0  0  0  0  0  0  0  0  0  0  0
  -26.1807  -13.5156   11.4377 H   0  0  0  0  0  0  0  0  0  0  0  0
  -25.2867  -13.4411    5.0631 H   0  0  0  0  0  0  0  0  0  0  0  0
  -23.4229  -16.7378   10.7088 H   0  0  0  0  0  0  0  0  0  0  0  0
  -22.3472  -19.6417    7.9129 H   0  0  0  0  0  0  0  0  0  0  0  0
  -24.0124  -19.1970    8.2296 H   0  0  0  0  0  0  0  0  0  0  0  0
  -22.9825  -15.3505    6.2179 H   0  0  0  0  0  0  0  0  0  0  0  0
  -24.3932  -16.0797    5.4412 H   0  0  0  0  0  0  0  0  0  0  0  0
  -20.5076  -19.2870    9.4562 H   0  0  0  0  0  0  0  0  0  0  0  0
  -20.3220  -20.9791    9.8204 H   0  0  0  0  0  0  0  0  0  0  0  0
  -22.8928  -22.9765   12.1628 H   0  0  0  0  0  0  0  0  0  0  0  0
  -22.2011  -22.6861   10.5847 H   0  0  0  0  0  0  0  0  0  0  0  0
  -23.7335  -21.9641   11.0133 H   0  0  0  0  0  0  0  0  0  0  0  0
  -23.1752  -17.6830    5.0467 H   0  0  0  0  0  0  0  0  0  0  0  0
  -24.2072  -18.8534    5.8329 H   0  0  0  0  0  0  0  0  0  0  0  0
  -22.5074  -19.1944    5.6148 H   0  0  0  0  0  0  0  0  0  0  0  0
  -24.9314  -17.3293    7.2970 H   0  0  0  0  0  0  0  0  0  0  0  0
  -26.3600  -12.5811    8.6967 H   0  0  0  0  0  0  0  0  0  0  0  0
  -24.8121  -15.5102   11.0986 H   0  0  0  0  0  0  0  0  0  0  0  0
  -21.5507  -18.0235    9.4964 H   0  0  0  0  0  0  0  0  0  0  0  0
  -22.6125  -20.6009   12.7253 H   0  0  0  0  0  0  0  0  0  0  0  0
  -21.0776  -21.3262   12.2873 H   0  0  0  0  0  0  0  0  0  0  0  0
  -19.7149  -18.7061   11.7146 H   0  0  0  0  0  0  0  0  0  0  0  0
  -18.5213  -19.6535   10.8597 H   0  0  0  0  0  0  0  0  0  0  0  0
  -19.5213  -20.4037   12.0804 H   0  0  0  0  0  0  0  0  0  0  0  0
  1 17  1  0
  2 23  1  0
  3  4  2  0
  3 25  1  0
  4 26  1  0
  5 18  2  0
  6 16  2  0
  7  6  1  0
  7  1  2  0
  7 27  1  0
  8 28  1  0
  9 20  1  0
  9 29  1  0
  9 30  1  0
 10  6  1  0
 10 15  1  0
 10 31  1  0
 10 32  1  0
 11  2  1  0
 11 24  1  0
 11 33  1  0
 11 34  1  0
 12 23  1  0
 12 35  1  0
 12 36  1  0
 12 37  1  0
 13 15  1  0
 13  9  1  0
 14 13  1  0
 14 38  1  0
 14 39  1  0
 14 40  1  0
 15 19  1  0
 15 41  1  1
 16 17  1  0
 16  5  1  0
 17  3  1  0
 17 42  1  0
 18  4  1  0
 18 43  1  0
 19  5  1  0
 19  8  2  0
 20  8  1  0
 20 21  1  0
 20 44  1  6
 21  2  1  0
 21 22  2  0
 23 45  1  0
 23 46  1  0
 24 47  1  0
 24 48  1  0
 24 49  1  0
M  END
>  <MODEL>  (25) 
       1

>  <SMILES>  (25) 
CCN(CC)C(=O)[C@@H]1C=C2C3=CC=CC4N=CC(=C34)C[C@H]2N(C)C1

>  <ALIGN_METHOD>  (25) 
MCS

>  <ALIGN_STATUS>  (25) 
OK

$$$$
Psilocin
     RDKit          3D

 31 32  0  0  0  0  0  0  0  0999 V2000
  -23.1040  -18.6803    5.5674 C   0  0  0  0  0  0  0  0  0  0  0  0
  -24.0066  -17.9501    4.6829 N   0  0  0  0  0  0  0  0  0  0  0  0
  -23.3330  -17.5616    3.4472 C   0  0  0  0  0  0  0  0  0  0  0  0
  -24.6774  -16.8202    5.3466 C   0  0  0  0  0  0  0  0  0  0  0  0
  -23.7848  -15.6580    5.8224 C   0  0  0  0  0  0  0  0  0  0  0  0
  -24.5642  -14.6110    6.5616 C   0  0  0  0  0  0  0  0  0  0  0  0
  -25.0508  -13.4488    5.9918 C   0  0  0  0  0  0  0  0  0  0  0  0
  -25.6892  -12.7255    6.9580 N   0  0  0  0  0  0  0  0  0  0  0  0
  -25.6333  -13.3864    8.1615 C   0  0  0  0  0  0  0  0  0  0  0  0
  -26.1446  -13.0035    9.4097 C   0  0  0  0  0  0  0  0  0  0  0  0
  -25.9489  -13.8651   10.4910 C   0  0  0  0  0  0  0  0  0  0  0  0
  -25.2726  -15.0686   10.3275 C   0  0  0  0  0  0  0  0  0  0  0  0
  -24.7761  -15.4361    9.0740 C   0  0  0  0  0  0  0  0  0  0  0  0
  -24.1406  -16.6582    9.0192 O   0  0  0  0  0  0  0  0  0  0  0  0
  -24.9420  -14.5860    7.9522 C   0  0  0  0  0  0  0  0  0  0  0  0
  -23.6232  -18.9914    6.4805 H   0  0  0  0  0  0  0  0  0  0  0  0
  -22.7534  -19.5970    5.0800 H   0  0  0  0  0  0  0  0  0  0  0  0
  -22.2250  -18.0926    5.8521 H   0  0  0  0  0  0  0  0  0  0  0  0
  -22.9873  -18.4504    2.9073 H   0  0  0  0  0  0  0  0  0  0  0  0
  -24.0231  -17.0379    2.7766 H   0  0  0  0  0  0  0  0  0  0  0  0
  -22.4657  -16.9169    3.6254 H   0  0  0  0  0  0  0  0  0  0  0  0
  -25.4409  -16.4238    4.6629 H   0  0  0  0  0  0  0  0  0  0  0  0
  -25.2504  -17.2153    6.1959 H   0  0  0  0  0  0  0  0  0  0  0  0
  -23.2997  -15.1882    4.9574 H   0  0  0  0  0  0  0  0  0  0  0  0
  -22.9726  -16.0163    6.4636 H   0  0  0  0  0  0  0  0  0  0  0  0
  -24.9890  -13.0754    4.9778 H   0  0  0  0  0  0  0  0  0  0  0  0
  -26.1345  -11.8292    6.8181 H   0  0  0  0  0  0  0  0  0  0  0  0
  -26.6755  -12.0658    9.5402 H   0  0  0  0  0  0  0  0  0  0  0  0
  -26.3322  -13.5937   11.4716 H   0  0  0  0  0  0  0  0  0  0  0  0
  -25.1318  -15.7331   11.1758 H   0  0  0  0  0  0  0  0  0  0  0  0
  -23.9758  -16.8549    8.0864 H   0  0  0  0  0  0  0  0  0  0  0  0
  1  2  1  0
  2  3  1  0
  2  4  1  0
  4  5  1  0
  5  6  1  0
  6  7  2  0
  7  8  1  0
  8  9  1  0
  9 10  2  0
 10 11  1  0
 11 12  2  0
 12 13  1  0
 13 14  1  0
 13 15  2  0
 15  6  1  0
 15  9  1  0
  1 16  1  0
  1 17  1  0
  1 18  1  0
  3 19  1  0
  3 20  1  0
  3 21  1  0
  4 22  1  0
  4 23  1  0
  5 24  1  0
  5 25  1  0
  7 26  1  0
  8 27  1  0
 10 28  1  0
 11 29  1  0
 12 30  1  0
 14 31  1  0
M  END
>  <SMILES>  (26) 
CN(C)CCc1c[nH]c2cccc(O)c12

>  <ALIGN_METHOD>  (26) 
MCS

>  <ALIGN_STATUS>  (26) 
OK

$$$$
