Serotonin
     RDKit          3D

 25 26  0  0  0  0  0  0  0  0999 V2000
    3.4372   -0.7148    0.5932 N   0  0  0  0  0  0  0  0  0  0  0  0
    2.6520    0.5204    0.5566 C   0  0  0  0  0  0  0  0  0  0  0  0
    1.8569    0.6969   -0.7458 C   0  0  0  0  0  0  0  0  0  0  0  0
    0.6543   -0.1906   -0.8457 C   0  0  0  0  0  0  0  0  0  0  0  0
    0.6011   -1.4306   -1.4523 C   0  0  0  0  0  0  0  0  0  0  0  0
   -0.6699   -1.9195   -1.3269 N   0  0  0  0  0  0  0  0  0  0  0  0
   -1.4639   -1.0170   -0.6595 C   0  0  0  0  0  0  0  0  0  0  0  0
   -2.8192   -1.0925   -0.3147 C   0  0  0  0  0  0  0  0  0  0  0  0
   -3.3715   -0.0114    0.3768 C   0  0  0  0  0  0  0  0  0  0  0  0
   -2.5926    1.0902    0.7045 C   0  0  0  0  0  0  0  0  0  0  0  0
   -3.1981    2.1106    1.3818 O   0  0  0  0  0  0  0  0  0  0  0  0
   -1.2409    1.1596    0.3587 C   0  0  0  0  0  0  0  0  0  0  0  0
   -0.6607    0.0797   -0.3418 C   0  0  0  0  0  0  0  0  0  0  0  0
    4.0905   -0.7332   -0.1875 H   0  0  0  0  0  0  0  0  0  0  0  0
    3.9940   -0.7385    1.4455 H   0  0  0  0  0  0  0  0  0  0  0  0
    3.3446    1.3635    0.6602 H   0  0  0  0  0  0  0  0  0  0  0  0
    1.9807    0.5421    1.4223 H   0  0  0  0  0  0  0  0  0  0  0  0
    1.5274    1.7416   -0.8127 H   0  0  0  0  0  0  0  0  0  0  0  0
    2.5121    0.5344   -1.6114 H   0  0  0  0  0  0  0  0  0  0  0  0
    1.3689   -2.0102   -1.9471 H   0  0  0  0  0  0  0  0  0  0  0  0
   -0.9851   -2.8157   -1.6702 H   0  0  0  0  0  0  0  0  0  0  0  0
   -3.4245   -1.9556   -0.5705 H   0  0  0  0  0  0  0  0  0  0  0  0
   -4.4199   -0.0327    0.6621 H   0  0  0  0  0  0  0  0  0  0  0  0
   -2.5375    2.8030    1.5455 H   0  0  0  0  0  0  0  0  0  0  0  0
   -0.6361    2.0204    0.6172 H   0  0  0  0  0  0  0  0  0  0  0  0
  1  2  1  0
  2  3  1  0
  3  4  1  0
  4  5  2  0
  5  6  1  0
  6  7  1  0
  7  8  2  0
  8  9  1  0
  9 10  2  0
 10 11  1  0
 10 12  1  0
 12 13  2  0
 13  4  1  0
 13  7  1  0
  1 14  1  0
  1 15  1  0
  2 16  1  0
  2 17  1  0
  3 18  1  0
  3 19  1  0
  5 20  1  0
  6 21  1  0
  8 22  1  0
  9 23  1  0
 11 24  1  0
 12 25  1  0
M  END
>  <SMILES>  (1) 
NCCc1c[nH]c2ccc(O)cc12

$$$$
LSD
     RDKit          3D

 49 52  0  0  1  0  0  0  0  0999 V2000
  -25.9760  -12.8170    6.9610 N   0  0  0  0  0  0  0  0  0  0  0  0
  -21.8640  -20.0230   10.8660 N   0  0  0  0  0  0  0  0  0  0  0  0
  -26.2210  -12.9890    9.3950 C   0  0  0  0  0  0  0  0  0  0  0  0
  -25.8660  -13.7760   10.4900 C   0  0  0  0  0  0  0  0  0  0  0  0
  -24.6890  -15.2200    9.0070 C   0  0  0  0  0  0  0  0  0  0  0  0
  -24.7790  -14.6110    6.7450 C   0  0  0  0  0  0  0  0  0  0  0  0
  -25.3380  -13.5970    6.0820 C   0  0  0  0  0  0  0  0  0  0  0  0
  -23.3290  -17.0780    9.7390 C   0  0  0  0  0  0  0  0  0  0  0  0
  -23.0070  -18.8370    8.1620 C   0  0  0  0  0  0  0  0  0  0  0  0
  -23.9880  -15.6910    6.3520 C   0  0  0  0  0  0  0  0  0  0  0  0
  -20.5340  -20.0170   10.2380 C   0  0  0  0  0  0  0  0  0  0  0  0
  -22.7720  -22.2560   11.3810 C   0  0  0  0  0  0  0  0  0  0  0  0
  -22.9350  -17.8090    7.1160 N   0  0  0  0  0  0  0  0  0  0  0  0
  -23.2260  -18.4270    5.8140 C   0  0  0  0  0  0  0  0  0  0  0  0
  -23.9920  -16.8260    7.3920 C   0  0  1  0  0  0  0  0  0  0  0  0
  -25.0800  -14.4300    8.0190 C   0  0  0  0  0  0  0  0  0  0  0  0
  -25.8120  -13.3390    8.1770 C   0  0  0  0  0  0  0  0  0  0  0  0
  -25.0860  -14.9140   10.3020 C   0  0  0  0  0  0  0  0  0  0  0  0
  -23.9390  -16.3500    8.7140 C   0  0  0  0  0  0  0  0  0  0  0  0
  -22.5970  -18.2470    9.5090 C   0  0  2  0  0  0  0  0  0  0  0  0
  -22.8570  -19.1710   10.5330 C   0  0  0  0  0  0  0  0  0  0  0  0
  -23.9590  -19.1900   11.0810 O   0  0  0  0  0  0  0  0  0  0  0  0
  -22.0400  -21.0270   11.9280 C   0  0  0  0  0  0  0  0  0  0  0  0
  -19.4950  -19.6690   11.3030 C   0  0  0  0  0  0  0  0  0  0  0  0
  -26.7960  -12.1423    9.5274 H   0  0  0  0  0  0  0  0  0  0  0  0
  -26.1807  -13.5156   11.4377 H   0  0  0  0  0  0  0  0  0  0  0  0
  -25.2867  -13.4411    5.0631 H   0  0  0  0  0  0  0  0  0  0  0  0
  -23.4229  -16.7378   10.7088 H   0  0  0  0  0  0  0  0  0  0  0  0
  -22.3472  -19.6417    7.9129 H   0  0  0  0  0  0  0  0  0  0  0  0
  -24.0124  -19.1970    8.2296 H   0  0  0  0  0  0  0  0  0  0  0  0
  -22.9825  -15.3505    6.2179 H   0  0  0  0  0  0  0  0  0  0  0  0
  -24.3932  -16.0797    5.4412 H   0  0  0  0  0  0  0  0  0  0  0  0
  -20.5076  -19.2870    9.4562 H   0  0  0  0  0  0  0  0  0  0  0  0
  -20.3220  -20.9791    9.8204 H   0  0  0  0  0  0  0  0  0  0  0  0
  -22.8928  -22.9765   12.1628 H   0  0  0  0  0  0  0  0  0  0  0  0
  -22.2011  -22.6861   10.5847 H   0  0  0  0  0  0  0  0  0  0  0  0
  -23.7335  -21.9641   11.0133 H   0  0  0  0  0  0  0  0  0  0  0  0
  -23.1752  -17.6830    5.0467 H   0  0  0  0  0  0  0  0  0  0  0  0
  -24.2072  -18.8534    5.8329 H   0  0  0  0  0  0  0  0  0  0  0  0
  -22.5074  -19.1944    5.6148 H   0  0  0  0  0  0  0  0  0  0  0  0
  -24.9314  -17.3293    7.2970 H   0  0  0  0  0  0  0  0  0  0  0  0
  -26.3600  -12.5811    8.6967 H   0  0  0  0  0  0  0  0  0  0  0  0
  -24.8121  -15.5102   11.0986 H   0  0  0  0  0  0  0  0  0  0  0  0
  -21.5507  -18.0235    9.4964 H   0  0  0  0  0  0  0  0  0  0  0  0
  -22.6125  -20.6009   12.7253 H   0  0  0  0  0  0  0  0  0  0  0  0
  -21.0776  -21.3262   12.2873 H   0  0  0  0  0  0  0  0  0  0  0  0
  -19.7149  -18.7061   11.7146 H   0  0  0  0  0  0  0  0  0  0  0  0
  -18.5213  -19.6535   10.8597 H   0  0  0  0  0  0  0  0  0  0  0  0
  -19.5213  -20.4037   12.0804 H   0  0  0  0  0  0  0  0  0  0  0  0
  1 17  1  0
  2 23  1  0
  3  4  2  0
  3 25  1  0
  4 26  1  0
  5 18  2  0
  6 16  2  0
  7  6  1  0
  7  1  2  0
  7 27  1  0
  8 28  1  0
  9 20  1  0
  9 29  1  0
  9 30  1  0
 10  6  1  0
 10 15  1  0
 10 31  1  0
 10 32  1  0
 11  2  1  0
 11 24  1  0
 11 33  1  0
 11 34  1  0
 12 23  1  0
 12 35  1  0
 12 36  1  0
 12 37  1  0
 13 15  1  0
 13  9  1  0
 14 13  1  0
 14 38  1  0
 14 39  1  0
 14 40  1  0
 15 19  1  0
 15 41  1  1
 16 17  1  0
 16  5  1  0
 17  3  1  0
 17 42  1  0
 18  4  1  0
 18 43  1  0
 19  5  1  0
 19  8  2  0
 20  8  1  0
 20 21  1  0
 20 44  1  6
 21  2  1  0
 21 22  2  0
 23 45  1  0
 23 46  1  0
 24 47  1  0
 24 48  1  0
 24 49  1  0
M  END
>  <MODEL>  (2) 
       1

>  <SMILES>  (2) 
CCN(CC)C(=O)[C@@H]1C=C2C3=CC=CC4N=CC(=C34)C[C@H]2N(C)C1

$$$$
Psilocin
     RDKit          3D

 31 32  0  0  0  0  0  0  0  0999 V2000
    3.1240   -1.5784   -0.3269 C   0  0  0  0  0  0  0  0  0  0  0  0
    2.9463   -0.3292   -1.0605 N   0  0  0  0  0  0  0  0  0  0  0  0
    3.8942    0.6856   -0.6097 C   0  0  0  0  0  0  0  0  0  0  0  0
    1.5541    0.1493   -1.0584 C   0  0  0  0  0  0  0  0  0  0  0  0
    0.9576    0.5605    0.3014 C   0  0  0  0  0  0  0  0  0  0  0  0
   -0.4888    0.9430    0.1930 C   0  0  0  0  0  0  0  0  0  0  0  0
   -0.9487    2.2415    0.0731 C   0  0  0  0  0  0  0  0  0  0  0  0
   -2.3128    2.2160    0.0196 N   0  0  0  0  0  0  0  0  0  0  0  0
   -2.7678    0.9222    0.1042 C   0  0  0  0  0  0  0  0  0  0  0  0
   -4.0851    0.4418    0.0999 C   0  0  0  0  0  0  0  0  0  0  0  0
   -4.2808   -0.9371    0.2015 C   0  0  0  0  0  0  0  0  0  0  0  0
   -3.1979   -1.8035    0.2967 C   0  0  0  0  0  0  0  0  0  0  0  0
   -1.8920   -1.3063    0.2925 C   0  0  0  0  0  0  0  0  0  0  0  0
   -0.8931   -2.2532    0.3705 O   0  0  0  0  0  0  0  0  0  0  0  0
   -1.6483    0.0870    0.2032 C   0  0  0  0  0  0  0  0  0  0  0  0
    2.4276   -2.3430   -0.6884 H   0  0  0  0  0  0  0  0  0  0  0  0
    4.1331   -1.9739   -0.4885 H   0  0  0  0  0  0  0  0  0  0  0  0
    2.9775   -1.4590    0.7517 H   0  0  0  0  0  0  0  0  0  0  0  0
    4.9226    0.3463   -0.7776 H   0  0  0  0  0  0  0  0  0  0  0  0
    3.7737    1.6116   -1.1827 H   0  0  0  0  0  0  0  0  0  0  0  0
    3.7859    0.9194    0.4548 H   0  0  0  0  0  0  0  0  0  0  0  0
    1.4821    1.0008   -1.7491 H   0  0  0  0  0  0  0  0  0  0  0  0
    0.9263   -0.6269   -1.5157 H   0  0  0  0  0  0  0  0  0  0  0  0
    1.5164    1.4140    0.7057 H   0  0  0  0  0  0  0  0  0  0  0  0
    1.0595   -0.2416    1.0399 H   0  0  0  0  0  0  0  0  0  0  0  0
   -0.4154    3.1822    0.0275 H   0  0  0  0  0  0  0  0  0  0  0  0
   -2.9093    3.0276   -0.0628 H   0  0  0  0  0  0  0  0  0  0  0  0
   -4.9328    1.1154    0.0230 H   0  0  0  0  0  0  0  0  0  0  0  0
   -5.2913   -1.3385    0.2031 H   0  0  0  0  0  0  0  0  0  0  0  0
   -3.3634   -2.8751    0.3695 H   0  0  0  0  0  0  0  0  0  0  0  0
   -0.0534   -1.7986    0.2151 H   0  0  0  0  0  0  0  0  0  0  0  0
  1  2  1  0
  2  3  1  0
  2  4  1  0
  4  5  1  0
  5  6  1  0
  6  7  2  0
  7  8  1  0
  8  9  1  0
  9 10  2  0
 10 11  1  0
 11 12  2  0
 12 13  1  0
 13 14  1  0
 13 15  2  0
 15  6  1  0
 15  9  1  0
  1 16  1  0
  1 17  1  0
  1 18  1  0
  3 19  1  0
  3 20  1  0
  3 21  1  0
  4 22  1  0
  4 23  1  0
  5 24  1  0
  5 25  1  0
  7 26  1  0
  8 27  1  0
 10 28  1  0
 11 29  1  0
 12 30  1  0
 14 31  1  0
M  END
>  <SMILES>  (3) 
CN(C)CCc1c[nH]c2cccc(O)c12

$$$$
Serotonin__p0
     RDKit          3D

 26 27  0  0  0  0  0  0  0  0999 V2000
    1.8571   -0.6484    1.6020 N   0  0  0  0  0  0  0  0  0  0  0  0
    2.1559    0.8040    1.5873 C   0  0  0  0  0  0  0  0  0  0  0  0
    1.5945    1.4702    0.3314 C   0  0  0  0  0  0  0  0  0  0  0  0
    0.1279    1.2407    0.1430 C   0  0  0  0  0  0  0  0  0  0  0  0
   -0.8850    2.1091    0.4982 C   0  0  0  0  0  0  0  0  0  0  0  0
   -2.0803    1.5617    0.1120 N   0  0  0  0  0  0  0  0  0  0  0  0
   -1.8708    0.3329   -0.4694 C   0  0  0  0  0  0  0  0  0  0  0  0
   -2.7922   -0.5738   -1.0068 C   0  0  0  0  0  0  0  0  0  0  0  0
   -2.2962   -1.7615   -1.5533 C   0  0  0  0  0  0  0  0  0  0  0  0
   -0.9311   -2.0382   -1.5582 C   0  0  0  0  0  0  0  0  0  0  0  0
   -0.0292   -1.1185   -1.0155 C   0  0  0  0  0  0  0  0  0  0  0  0
    1.3151   -1.4301   -0.9816 O   0  0  0  0  0  0  0  0  0  0  0  0
   -0.4955    0.0969   -0.4637 C   0  0  0  0  0  0  0  0  0  0  0  0
    1.9964   -1.0607    0.6603 H   0  0  0  0  0  0  0  0  0  0  0  0
    2.4106   -1.1768    2.2828 H   0  0  0  0  0  0  0  0  0  0  0  0
    0.8588   -0.8051    1.7992 H   0  0  0  0  0  0  0  0  0  0  0  0
    1.7242    1.2206    2.5026 H   0  0  0  0  0  0  0  0  0  0  0  0
    3.2448    0.9041    1.6236 H   0  0  0  0  0  0  0  0  0  0  0  0
    2.1361    1.1112   -0.5524 H   0  0  0  0  0  0  0  0  0  0  0  0
    1.7923    2.5480    0.3876 H   0  0  0  0  0  0  0  0  0  0  0  0
   -0.8635    3.0879    0.9621 H   0  0  0  0  0  0  0  0  0  0  0  0
   -2.9873    1.9992    0.2193 H   0  0  0  0  0  0  0  0  0  0  0  0
   -3.8590   -0.3662   -1.0112 H   0  0  0  0  0  0  0  0  0  0  0  0
   -2.9936   -2.4806   -1.9811 H   0  0  0  0  0  0  0  0  0  0  0  0
   -0.5917   -2.9803   -1.9811 H   0  0  0  0  0  0  0  0  0  0  0  0
    1.4616   -2.0460   -1.7304 H   0  0  0  0  0  0  0  0  0  0  0  0
  1  2  1  0
  2  3  1  0
  3  4  1  0
  4  5  2  0
  5  6  1  0
  6  7  1  0
  7  8  2  0
  8  9  1  0
  9 10  2  0
 10 11  1  0
 11 12  1  0
 11 13  2  0
 13  4  1  0
 13  7  1  0
  1 14  1  0
  1 15  1  0
  1 16  1  0
  2 17  1  0
  2 18  1  0
  3 19  1  0
  3 20  1  0
  5 21  1  0
  6 22  1  0
  8 23  1  0
  9 24  1  0
 10 25  1  0
 12 26  1  0
M  CHG  1   1   1
M  END
>  <input_smiles>  (4) 
NCCc1c[nH]c2cccc(O)c12

>  <prot_variant_index>  (4) 
0

>  <SMILES>  (4) 
[NH3+]CCc1c[nH]c2cccc(O)c12

$$$$
Serotonin__p1
     RDKit          3D

 25 26  0  0  0  0  0  0  0  0999 V2000
    2.5908    0.8393    0.6546 N   0  0  0  0  0  0  0  0  0  0  0  0
    2.5489   -0.6249    0.6263 C   0  0  0  0  0  0  0  0  0  0  0  0
    1.7341   -1.1390   -0.5614 C   0  0  0  0  0  0  0  0  0  0  0  0
    0.2552   -1.1204   -0.3188 C   0  0  0  0  0  0  0  0  0  0  0  0
   -0.5219   -2.2423   -0.0989 C   0  0  0  0  0  0  0  0  0  0  0  0
   -1.8182   -1.8402    0.0432 N   0  0  0  0  0  0  0  0  0  0  0  0
   -1.9149   -0.4738   -0.0619 C   0  0  0  0  0  0  0  0  0  0  0  0
   -3.0554    0.3311    0.0235 C   0  0  0  0  0  0  0  0  0  0  0  0
   -2.8854    1.7023   -0.1283 C   0  0  0  0  0  0  0  0  0  0  0  0
   -1.6196    2.2397   -0.3492 C   0  0  0  0  0  0  0  0  0  0  0  0
   -0.4584    1.4470   -0.4335 C   0  0  0  0  0  0  0  0  0  0  0  0
    0.7211    1.8931   -0.6053 O   0  0  0  0  0  0  0  0  0  0  0  0
   -0.6279    0.0313   -0.2907 C   0  0  0  0  0  0  0  0  0  0  0  0
    1.6065    1.1983    0.4888 H   0  0  0  0  0  0  0  0  0  0  0  0
    2.9815    1.2736   -0.1898 H   0  0  0  0  0  0  0  0  0  0  0  0
    2.9010    1.3104    1.5003 H   0  0  0  0  0  0  0  0  0  0  0  0
    3.5897   -0.9534    0.5509 H   0  0  0  0  0  0  0  0  0  0  0  0
    2.1391   -0.9562    1.5858 H   0  0  0  0  0  0  0  0  0  0  0  0
    1.9760   -0.5880   -1.4782 H   0  0  0  0  0  0  0  0  0  0  0  0
    2.0371   -2.1778   -0.7493 H   0  0  0  0  0  0  0  0  0  0  0  0
   -0.2661   -3.2921   -0.0542 H   0  0  0  0  0  0  0  0  0  0  0  0
   -2.6078   -2.4512    0.1936 H   0  0  0  0  0  0  0  0  0  0  0  0
   -4.0393   -0.0905    0.1933 H   0  0  0  0  0  0  0  0  0  0  0  0
   -3.7440    2.3651   -0.0771 H   0  0  0  0  0  0  0  0  0  0  0  0
   -1.5222    3.3187   -0.4638 H   0  0  0  0  0  0  0  0  0  0  0  0
  1  2  1  0
  2  3  1  0
  3  4  1  0
  4  5  2  0
  5  6  1  0
  6  7  1  0
  7  8  2  0
  8  9  1  0
  9 10  2  0
 10 11  1  0
 11 12  1  0
 11 13  2  0
 13  4  1  0
 13  7  1  0
  1 14  1  0
  1 15  1  0
  1 16  1  0
  2 17  1  0
  2 18  1  0
  3 19  1  0
  3 20  1  0
  5 21  1  0
  6 22  1  0
  8 23  1  0
  9 24  1  0
 10 25  1  0
M  CHG  2   1   1  12  -1
M  END
>  <input_smiles>  (5) 
NCCc1c[nH]c2cccc(O)c12

>  <prot_variant_index>  (5) 
1

>  <SMILES>  (5) 
[NH3+]CCc1c[nH]c2cccc([O-])c12

$$$$
Serotonin__p2
     RDKit          3D

 25 26  0  0  0  0  0  0  0  0999 V2000
    2.1704   -1.5831    0.5054 N   0  0  0  0  0  0  0  0  0  0  0  0
    2.7304   -0.5619   -0.3896 C   0  0  0  0  0  0  0  0  0  0  0  0
    1.6880    0.0128   -1.3560 C   0  0  0  0  0  0  0  0  0  0  0  0
    0.5653    0.7403   -0.6803 C   0  0  0  0  0  0  0  0  0  0  0  0
    0.4786    2.1098   -0.5139 C   0  0  0  0  0  0  0  0  0  0  0  0
   -0.7182    2.3972    0.0816 N   0  0  0  0  0  0  0  0  0  0  0  0
   -1.4258    1.2416    0.3123 C   0  0  0  0  0  0  0  0  0  0  0  0
   -2.6997    1.0670    0.8707 C   0  0  0  0  0  0  0  0  0  0  0  0
   -3.1922   -0.2367    0.9823 C   0  0  0  0  0  0  0  0  0  0  0  0
   -2.4313   -1.3257    0.5684 C   0  0  0  0  0  0  0  0  0  0  0  0
   -1.1576   -1.1310    0.0312 C   0  0  0  0  0  0  0  0  0  0  0  0
   -0.4507   -2.2686   -0.2960 O   0  0  0  0  0  0  0  0  0  0  0  0
   -0.6364    0.1747   -0.1281 C   0  0  0  0  0  0  0  0  0  0  0  0
    2.9399   -2.0237    1.0145 H   0  0  0  0  0  0  0  0  0  0  0  0
    1.6319   -1.0984    1.2332 H   0  0  0  0  0  0  0  0  0  0  0  0
    3.5344   -1.0214   -0.9751 H   0  0  0  0  0  0  0  0  0  0  0  0
    3.1791    0.2362    0.2128 H   0  0  0  0  0  0  0  0  0  0  0  0
    2.1972    0.7023   -2.0421 H   0  0  0  0  0  0  0  0  0  0  0  0
    1.2798   -0.7865   -1.9873 H   0  0  0  0  0  0  0  0  0  0  0  0
    1.1584    2.9045   -0.7914 H   0  0  0  0  0  0  0  0  0  0  0  0
   -1.0520    3.3251    0.3023 H   0  0  0  0  0  0  0  0  0  0  0  0
   -3.2951    1.9128    1.1994 H   0  0  0  0  0  0  0  0  0  0  0  0
   -4.1805   -0.4033    1.4039 H   0  0  0  0  0  0  0  0  0  0  0  0
   -2.8195   -2.3350    0.6736 H   0  0  0  0  0  0  0  0  0  0  0  0
    0.5053   -2.0489   -0.2320 H   0  0  0  0  0  0  0  0  0  0  0  0
  1  2  1  0
  2  3  1  0
  3  4  1  0
  4  5  2  0
  5  6  1  0
  6  7  1  0
  7  8  2  0
  8  9  1  0
  9 10  2  0
 10 11  1  0
 11 12  1  0
 11 13  2  0
 13  4  1  0
 13  7  1  0
  1 14  1  0
  1 15  1  0
  2 16  1  0
  2 17  1  0
  3 18  1  0
  3 19  1  0
  5 20  1  0
  6 21  1  0
  8 22  1  0
  9 23  1  0
 10 24  1  0
 12 25  1  0
M  END
>  <input_smiles>  (6) 
NCCc1c[nH]c2cccc(O)c12

>  <prot_variant_index>  (6) 
2

>  <SMILES>  (6) 
NCCc1c[nH]c2cccc(O)c12

$$$$
Serotonin__p3
     RDKit          3D

 24 25  0  0  0  0  0  0  0  0999 V2000
    3.9012   -0.5024   -0.4762 N   0  0  0  0  0  0  0  0  0  0  0  0
    2.4465   -0.7214   -0.6015 C   0  0  0  0  0  0  0  0  0  0  0  0
    1.7392   -0.6459    0.7565 C   0  0  0  0  0  0  0  0  0  0  0  0
    0.2506   -0.7584    0.6292 C   0  0  0  0  0  0  0  0  0  0  0  0
   -0.4935   -1.8981    0.8683 C   0  0  0  0  0  0  0  0  0  0  0  0
   -1.8036   -1.5965    0.6447 N   0  0  0  0  0  0  0  0  0  0  0  0
   -1.9465   -0.2846    0.2601 C   0  0  0  0  0  0  0  0  0  0  0  0
   -3.1157    0.4130   -0.0624 C   0  0  0  0  0  0  0  0  0  0  0  0
   -2.9849    1.7491   -0.4234 C   0  0  0  0  0  0  0  0  0  0  0  0
   -1.7300    2.3540   -0.4573 C   0  0  0  0  0  0  0  0  0  0  0  0
   -0.5381    1.6718   -0.1365 C   0  0  0  0  0  0  0  0  0  0  0  0
    0.6258    2.1873   -0.1555 O   0  0  0  0  0  0  0  0  0  0  0  0
   -0.6688    0.2941    0.2367 C   0  0  0  0  0  0  0  0  0  0  0  0
    3.9971    0.4144   -0.0288 H   0  0  0  0  0  0  0  0  0  0  0  0
    4.2582   -0.3599   -1.4196 H   0  0  0  0  0  0  0  0  0  0  0  0
    2.2812   -1.7055   -1.0552 H   0  0  0  0  0  0  0  0  0  0  0  0
    2.0428    0.0194   -1.2992 H   0  0  0  0  0  0  0  0  0  0  0  0
    2.1090   -1.4574    1.3977 H   0  0  0  0  0  0  0  0  0  0  0  0
    1.9970    0.2825    1.2797 H   0  0  0  0  0  0  0  0  0  0  0  0
   -0.1916   -2.8878    1.1782 H   0  0  0  0  0  0  0  0  0  0  0  0
   -2.5729   -2.2392    0.7442 H   0  0  0  0  0  0  0  0  0  0  0  0
   -4.0873   -0.0632   -0.0335 H   0  0  0  0  0  0  0  0  0  0  0  0
   -3.8615    2.3329   -0.6818 H   0  0  0  0  0  0  0  0  0  0  0  0
   -1.6543    3.4018   -0.7427 H   0  0  0  0  0  0  0  0  0  0  0  0
  1  2  1  0
  2  3  1  0
  3  4  1  0
  4  5  2  0
  5  6  1  0
  6  7  1  0
  7  8  2  0
  8  9  1  0
  9 10  2  0
 10 11  1  0
 11 12  1  0
 11 13  2  0
 13  4  1  0
 13  7  1  0
  1 14  1  0
  1 15  1  0
  2 16  1  0
  2 17  1  0
  3 18  1  0
  3 19  1  0
  5 20  1  0
  6 21  1  0
  8 22  1  0
  9 23  1  0
 10 24  1  0
M  CHG  1  12  -1
M  END
>  <input_smiles>  (7) 
NCCc1c[nH]c2cccc(O)c12

>  <prot_variant_index>  (7) 
3

>  <SMILES>  (7) 
NCCc1c[nH]c2cccc([O-])c12

$$$$
Psilocin__p0
     RDKit          3D

 31 32  0  0  0  0  0  0  0  0999 V2000
   -3.8743    0.4581   -0.4674 C   0  0  0  0  0  0  0  0  0  0  0  0
   -2.8870   -0.6027   -0.6726 N   0  0  0  0  0  0  0  0  0  0  0  0
   -3.4363   -1.8835   -0.2205 C   0  0  0  0  0  0  0  0  0  0  0  0
   -1.6208   -0.3230    0.0408 C   0  0  0  0  0  0  0  0  0  0  0  0
   -0.8161    0.8495   -0.5485 C   0  0  0  0  0  0  0  0  0  0  0  0
    0.4638    1.0902    0.1987 C   0  0  0  0  0  0  0  0  0  0  0  0
    0.6625    2.0383    1.1848 C   0  0  0  0  0  0  0  0  0  0  0  0
    1.9571    1.9470    1.6153 N   0  0  0  0  0  0  0  0  0  0  0  0
    2.6183    0.9531    0.9332 C   0  0  0  0  0  0  0  0  0  0  0  0
    3.9437    0.5142    1.0459 C   0  0  0  0  0  0  0  0  0  0  0  0
    4.3563   -0.5306    0.2140 C   0  0  0  0  0  0  0  0  0  0  0  0
    3.4777   -1.1150   -0.6959 C   0  0  0  0  0  0  0  0  0  0  0  0
    2.1576   -0.6612   -0.7926 C   0  0  0  0  0  0  0  0  0  0  0  0
    1.2994   -1.2460   -1.6901 O   0  0  0  0  0  0  0  0  0  0  0  0
    1.7083    0.3932    0.0328 C   0  0  0  0  0  0  0  0  0  0  0  0
   -4.8142    0.2108   -0.9745 H   0  0  0  0  0  0  0  0  0  0  0  0
   -4.0923    0.6212    0.5942 H   0  0  0  0  0  0  0  0  0  0  0  0
   -3.5390    1.4038   -0.9037 H   0  0  0  0  0  0  0  0  0  0  0  0
   -4.3544   -2.1243   -0.7682 H   0  0  0  0  0  0  0  0  0  0  0  0
   -3.6644   -1.8805    0.8517 H   0  0  0  0  0  0  0  0  0  0  0  0
   -2.7325   -2.6987   -0.4224 H   0  0  0  0  0  0  0  0  0  0  0  0
   -0.9856   -1.2175   -0.0080 H   0  0  0  0  0  0  0  0  0  0  0  0
   -1.8156   -0.1450    1.1075 H   0  0  0  0  0  0  0  0  0  0  0  0
   -1.4069    1.7725   -0.5165 H   0  0  0  0  0  0  0  0  0  0  0  0
   -0.5968    0.6611   -1.6063 H   0  0  0  0  0  0  0  0  0  0  0  0
   -0.0101    2.7705    1.6112 H   0  0  0  0  0  0  0  0  0  0  0  0
    2.3746    2.5254    2.3306 H   0  0  0  0  0  0  0  0  0  0  0  0
    4.6321    0.9661    1.7527 H   0  0  0  0  0  0  0  0  0  0  0  0
    5.3802   -0.8918    0.2797 H   0  0  0  0  0  0  0  0  0  0  0  0
    3.8345   -1.9249   -1.3246 H   0  0  0  0  0  0  0  0  0  0  0  0
    1.7800   -1.9301   -2.1815 H   0  0  0  0  0  0  0  0  0  0  0  0
  1  2  1  0
  2  3  1  0
  2  4  1  0
  4  5  1  0
  5  6  1  0
  6  7  2  0
  7  8  1  0
  8  9  1  0
  9 10  2  0
 10 11  1  0
 11 12  2  0
 12 13  1  0
 13 14  1  0
 13 15  2  0
 15  6  1  0
 15  9  1  0
  1 16  1  0
  1 17  1  0
  1 18  1  0
  3 19  1  0
  3 20  1  0
  3 21  1  0
  4 22  1  0
  4 23  1  0
  5 24  1  0
  5 25  1  0
  7 26  1  0
  8 27  1  0
 10 28  1  0
 11 29  1  0
 12 30  1  0
 14 31  1  0
M  END
>  <input_smiles>  (8) 
CN(C)CCc1c[nH]c2cccc(O)c12

>  <prot_variant_index>  (8) 
0

>  <SMILES>  (8) 
CN(C)CCc1c[nH]c2cccc(O)c12

$$$$
Psilocin__p1
     RDKit          3D

 31 32  0  0  0  0  0  0  0  0999 V2000
   -3.8621    0.4409   -0.5554 C   0  0  0  0  0  0  0  0  0  0  0  0
   -2.8077    0.2817    0.4879 N   0  0  0  0  0  0  0  0  0  0  0  0
   -2.4600    1.6180    1.1096 C   0  0  0  0  0  0  0  0  0  0  0  0
   -1.5592   -0.3871   -0.0870 C   0  0  0  0  0  0  0  0  0  0  0  0
   -0.7025   -1.0246    1.0120 C   0  0  0  0  0  0  0  0  0  0  0  0
    0.6859   -1.2850    0.5375 C   0  0  0  0  0  0  0  0  0  0  0  0
    1.2695   -2.5132    0.3032 C   0  0  0  0  0  0  0  0  0  0  0  0
    2.5519   -2.2902   -0.1146 N   0  0  0  0  0  0  0  0  0  0  0  0
    2.8185   -0.9422   -0.1723 C   0  0  0  0  0  0  0  0  0  0  0  0
    3.9952   -0.2911   -0.5542 C   0  0  0  0  0  0  0  0  0  0  0  0
    3.9970    1.0996   -0.5124 C   0  0  0  0  0  0  0  0  0  0  0  0
    2.8640    1.8023   -0.1027 C   0  0  0  0  0  0  0  0  0  0  0  0
    1.6684    1.1670    0.2865 C   0  0  0  0  0  0  0  0  0  0  0  0
    0.6088    1.7586    0.6704 O   0  0  0  0  0  0  0  0  0  0  0  0
    1.6668   -0.2633    0.2421 C   0  0  0  0  0  0  0  0  0  0  0  0
   -4.7362    0.9054   -0.0911 H   0  0  0  0  0  0  0  0  0  0  0  0
   -4.1304   -0.5525   -0.9249 H   0  0  0  0  0  0  0  0  0  0  0  0
   -3.4714    1.0656   -1.3635 H   0  0  0  0  0  0  0  0  0  0  0  0
   -3.1565   -0.3178    1.2402 H   0  0  0  0  0  0  0  0  0  0  0  0
   -2.0535    2.2737    0.3366 H   0  0  0  0  0  0  0  0  0  0  0  0
   -3.3883    2.0424    1.5041 H   0  0  0  0  0  0  0  0  0  0  0  0
   -1.7766    1.4552    1.9431 H   0  0  0  0  0  0  0  0  0  0  0  0
   -1.0579    0.3455   -0.7247 H   0  0  0  0  0  0  0  0  0  0  0  0
   -1.9142   -1.1874   -0.7491 H   0  0  0  0  0  0  0  0  0  0  0  0
   -0.6580   -0.4101    1.9169 H   0  0  0  0  0  0  0  0  0  0  0  0
   -1.1724   -1.9666    1.3238 H   0  0  0  0  0  0  0  0  0  0  0  0
    0.8917   -3.5204    0.4076 H   0  0  0  0  0  0  0  0  0  0  0  0
    3.2238   -3.0059   -0.3485 H   0  0  0  0  0  0  0  0  0  0  0  0
    4.8755   -0.8392   -0.8672 H   0  0  0  0  0  0  0  0  0  0  0  0
    4.8886    1.6503   -0.7961 H   0  0  0  0  0  0  0  0  0  0  0  0
    2.9014    2.8903   -0.0763 H   0  0  0  0  0  0  0  0  0  0  0  0
  1  2  1  0
  2  3  1  0
  2  4  1  0
  4  5  1  0
  5  6  1  0
  6  7  2  0
  7  8  1  0
  8  9  1  0
  9 10  2  0
 10 11  1  0
 11 12  2  0
 12 13  1  0
 13 14  1  0
 13 15  2  0
 15  6  1  0
 15  9  1  0
  1 16  1  0
  1 17  1  0
  1 18  1  0
  2 19  1  0
  3 20  1  0
  3 21  1  0
  3 22  1  0
  4 23  1  0
  4 24  1  0
  5 25  1  0
  5 26  1  0
  7 27  1  0
  8 28  1  0
 10 29  1  0
 11 30  1  0
 12 31  1  0
M  CHG  2   2   1  14  -1
M  END
>  <input_smiles>  (9) 
CN(C)CCc1c[nH]c2cccc(O)c12

>  <prot_variant_index>  (9) 
1

>  <SMILES>  (9) 
C[NH+](C)CCc1c[nH]c2cccc([O-])c12

$$$$
Psilocin__p2
     RDKit          3D

 30 31  0  0  0  0  0  0  0  0999 V2000
   -3.5345    0.2287   -0.5195 C   0  0  0  0  0  0  0  0  0  0  0  0
   -2.7827   -0.0848    0.6853 N   0  0  0  0  0  0  0  0  0  0  0  0
   -2.1795   -1.4119    0.6106 C   0  0  0  0  0  0  0  0  0  0  0  0
   -1.7745    0.9495    1.0354 C   0  0  0  0  0  0  0  0  0  0  0  0
   -0.8534    1.5407   -0.0549 C   0  0  0  0  0  0  0  0  0  0  0  0
    0.2447    0.6435   -0.5386 C   0  0  0  0  0  0  0  0  0  0  0  0
    0.2698   -0.0107   -1.7569 C   0  0  0  0  0  0  0  0  0  0  0  0
    1.4257   -0.7287   -1.8244 N   0  0  0  0  0  0  0  0  0  0  0  0
    2.1833   -0.5452   -0.6931 C   0  0  0  0  0  0  0  0  0  0  0  0
    3.4311   -1.0929   -0.3753 C   0  0  0  0  0  0  0  0  0  0  0  0
    3.9986   -0.7301    0.8405 C   0  0  0  0  0  0  0  0  0  0  0  0
    3.3391    0.1521    1.6935 C   0  0  0  0  0  0  0  0  0  0  0  0
    2.0824    0.7176    1.3937 C   0  0  0  0  0  0  0  0  0  0  0  0
    1.4560    1.5380    2.1379 O   0  0  0  0  0  0  0  0  0  0  0  0
    1.4859    0.3346    0.1485 C   0  0  0  0  0  0  0  0  0  0  0  0
   -4.3690   -0.4720   -0.6369 H   0  0  0  0  0  0  0  0  0  0  0  0
   -3.9760    1.2292   -0.4533 H   0  0  0  0  0  0  0  0  0  0  0  0
   -2.9265    0.1752   -1.4286 H   0  0  0  0  0  0  0  0  0  0  0  0
   -2.9639   -2.1733    0.5293 H   0  0  0  0  0  0  0  0  0  0  0  0
   -1.6206   -1.6441    1.5239 H   0  0  0  0  0  0  0  0  0  0  0  0
   -1.5135   -1.5352   -0.2463 H   0  0  0  0  0  0  0  0  0  0  0  0
   -1.1839    0.5928    1.8872 H   0  0  0  0  0  0  0  0  0  0  0  0
   -2.3520    1.7936    1.4370 H   0  0  0  0  0  0  0  0  0  0  0  0
   -0.4051    2.4638    0.3340 H   0  0  0  0  0  0  0  0  0  0  0  0
   -1.4534    1.8767   -0.9097 H   0  0  0  0  0  0  0  0  0  0  0  0
   -0.4467   -0.0276   -2.5644 H   0  0  0  0  0  0  0  0  0  0  0  0
    1.7050   -1.3098   -2.5984 H   0  0  0  0  0  0  0  0  0  0  0  0
    3.9415   -1.7707   -1.0473 H   0  0  0  0  0  0  0  0  0  0  0  0
    4.9646   -1.1270    1.1325 H   0  0  0  0  0  0  0  0  0  0  0  0
    3.8077    0.4281    2.6366 H   0  0  0  0  0  0  0  0  0  0  0  0
  1  2  1  0
  2  3  1  0
  2  4  1  0
  4  5  1  0
  5  6  1  0
  6  7  2  0
  7  8  1  0
  8  9  1  0
  9 10  2  0
 10 11  1  0
 11 12  2  0
 12 13  1  0
 13 14  1  0
 13 15  2  0
 15  6  1  0
 15  9  1  0
  1 16  1  0
  1 17  1  0
  1 18  1  0
  3 19  1  0
  3 20  1  0
  3 21  1  0
  4 22  1  0
  4 23  1  0
  5 24  1  0
  5 25  1  0
  7 26  1  0
  8 27  1  0
 10 28  1  0
 11 29  1  0
 12 30  1  0
M  CHG  1  14  -1
M  END
>  <input_smiles>  (10) 
CN(C)CCc1c[nH]c2cccc(O)c12

>  <prot_variant_index>  (10) 
2

>  <SMILES>  (10) 
CN(C)CCc1c[nH]c2cccc([O-])c12

$$$$
Psilocin__p3
     RDKit          3D

 32 33  0  0  0  0  0  0  0  0999 V2000
   -2.4736   -2.3364    0.6137 C   0  0  0  0  0  0  0  0  0  0  0  0
   -1.7505   -1.0676    0.2931 N   0  0  0  0  0  0  0  0  0  0  0  0
   -2.1945    0.0768    1.1559 C   0  0  0  0  0  0  0  0  0  0  0  0
   -1.7595   -0.7275   -1.1876 C   0  0  0  0  0  0  0  0  0  0  0  0
   -0.3390   -0.6482   -1.7563 C   0  0  0  0  0  0  0  0  0  0  0  0
    0.4514    0.5110   -1.2354 C   0  0  0  0  0  0  0  0  0  0  0  0
    0.5732    1.7447   -1.8458 C   0  0  0  0  0  0  0  0  0  0  0  0
    1.4174    2.5192   -1.0955 N   0  0  0  0  0  0  0  0  0  0  0  0
    1.8389    1.8216    0.0118 C   0  0  0  0  0  0  0  0  0  0  0  0
    2.7024    2.2125    1.0424 C   0  0  0  0  0  0  0  0  0  0  0  0
    2.9720    1.2862    2.0543 C   0  0  0  0  0  0  0  0  0  0  0  0
    2.3967    0.0180    2.0415 C   0  0  0  0  0  0  0  0  0  0  0  0
    1.5370   -0.3496    1.0022 C   0  0  0  0  0  0  0  0  0  0  0  0
    0.9378   -1.5910    1.0263 O   0  0  0  0  0  0  0  0  0  0  0  0
    1.2487    0.5578   -0.0415 C   0  0  0  0  0  0  0  0  0  0  0  0
   -2.3461   -2.5428    1.6797 H   0  0  0  0  0  0  0  0  0  0  0  0
   -3.5303   -2.2089    0.3640 H   0  0  0  0  0  0  0  0  0  0  0  0
   -2.0247   -3.1408    0.0248 H   0  0  0  0  0  0  0  0  0  0  0  0
   -0.7590   -1.2365    0.5535 H   0  0  0  0  0  0  0  0  0  0  0  0
   -2.0300   -0.2025    2.2000 H   0  0  0  0  0  0  0  0  0  0  0  0
   -1.5961    0.9562    0.9081 H   0  0  0  0  0  0  0  0  0  0  0  0
   -3.2548    0.2631    0.9652 H   0  0  0  0  0  0  0  0  0  0  0  0
   -2.3184   -1.5153   -1.7050 H   0  0  0  0  0  0  0  0  0  0  0  0
   -2.3046    0.2143   -1.3191 H   0  0  0  0  0  0  0  0  0  0  0  0
   -0.4121   -0.5598   -2.8481 H   0  0  0  0  0  0  0  0  0  0  0  0
    0.1977   -1.5856   -1.5677 H   0  0  0  0  0  0  0  0  0  0  0  0
    0.1577    2.1335   -2.7674 H   0  0  0  0  0  0  0  0  0  0  0  0
    1.7078    3.4615   -1.3253 H   0  0  0  0  0  0  0  0  0  0  0  0
    3.1587    3.1985    1.0589 H   0  0  0  0  0  0  0  0  0  0  0  0
    3.6438    1.5656    2.8647 H   0  0  0  0  0  0  0  0  0  0  0  0
    2.6235   -0.6660    2.8549 H   0  0  0  0  0  0  0  0  0  0  0  0
    1.5284   -2.1619    1.5589 H   0  0  0  0  0  0  0  0  0  0  0  0
  1  2  1  0
  2  3  1  0
  2  4  1  0
  4  5  1  0
  5  6  1  0
  6  7  2  0
  7  8  1  0
  8  9  1  0
  9 10  2  0
 10 11  1  0
 11 12  2  0
 12 13  1  0
 13 14  1  0
 13 15  2  0
 15  6  1  0
 15  9  1  0
  1 16  1  0
  1 17  1  0
  1 18  1  0
  2 19  1  0
  3 20  1  0
  3 21  1  0
  3 22  1  0
  4 23  1  0
  4 24  1  0
  5 25  1  0
  5 26  1  0
  7 27  1  0
  8 28  1  0
 10 29  1  0
 11 30  1  0
 12 31  1  0
 14 32  1  0
M  CHG  1   2   1
M  END
>  <input_smiles>  (11) 
CN(C)CCc1c[nH]c2cccc(O)c12

>  <prot_variant_index>  (11) 
3

>  <SMILES>  (11) 
C[NH+](C)CCc1c[nH]c2cccc(O)c12

$$$$
DMT__p0
     RDKit          3D

 33 34  0  0  0  0  0  0  0  0999 V2000
   -1.8170    1.8676   -1.3156 C   0  0  0  0  0  0  0  0  0  0  0  0
   -2.5020    0.6910   -0.6745 C   0  0  0  0  0  0  0  0  0  0  0  0
   -3.9046    0.5844   -0.7981 C   0  0  0  0  0  0  0  0  0  0  0  0
   -4.6120   -0.4753   -0.2383 C   0  0  0  0  0  0  0  0  0  0  0  0
   -3.9508   -1.4777    0.4661 C   0  0  0  0  0  0  0  0  0  0  0  0
   -2.5599   -1.3812    0.5808 C   0  0  0  0  0  0  0  0  0  0  0  0
   -1.6816   -2.2271    1.2126 N   0  0  0  0  0  0  0  0  0  0  0  0
   -0.4025   -1.7658    1.0857 C   0  0  0  0  0  0  0  0  0  0  0  0
   -0.4268   -0.5975    0.3461 C   0  0  0  0  0  0  0  0  0  0  0  0
    0.7519    0.2559   -0.0439 C   0  0  0  0  0  0  0  0  0  0  0  0
    2.1295   -0.3938    0.1835 C   0  0  0  0  0  0  0  0  0  0  0  0
    3.2594    0.4121   -0.3279 N   0  0  0  0  0  0  0  0  0  0  0  0
    3.4423    1.6463    0.4385 C   0  0  0  0  0  0  0  0  0  0  0  0
    4.4922   -0.3795   -0.2895 C   0  0  0  0  0  0  0  0  0  0  0  0
   -1.8128   -0.3358    0.0297 C   0  0  0  0  0  0  0  0  0  0  0  0
   -1.2546    1.5390   -2.1947 H   0  0  0  0  0  0  0  0  0  0  0  0
   -2.5367    2.6274   -1.6382 H   0  0  0  0  0  0  0  0  0  0  0  0
   -1.1385    2.3488   -0.6054 H   0  0  0  0  0  0  0  0  0  0  0  0
   -4.4580    1.3478   -1.3423 H   0  0  0  0  0  0  0  0  0  0  0  0
   -5.6923   -0.5208   -0.3517 H   0  0  0  0  0  0  0  0  0  0  0  0
   -4.5009   -2.3036    0.9046 H   0  0  0  0  0  0  0  0  0  0  0  0
   -1.9520   -3.0691    1.7008 H   0  0  0  0  0  0  0  0  0  0  0  0
    0.4168   -2.3147    1.5300 H   0  0  0  0  0  0  0  0  0  0  0  0
    0.6819    1.1899    0.5252 H   0  0  0  0  0  0  0  0  0  0  0  0
    0.6635    0.5073   -1.1077 H   0  0  0  0  0  0  0  0  0  0  0  0
    2.1284   -1.3596   -0.3399 H   0  0  0  0  0  0  0  0  0  0  0  0
    2.2721   -0.6132    1.2502 H   0  0  0  0  0  0  0  0  0  0  0  0
    3.5971    1.4515    1.5059 H   0  0  0  0  0  0  0  0  0  0  0  0
    2.5827    2.3141    0.3266 H   0  0  0  0  0  0  0  0  0  0  0  0
    4.3074    2.2060    0.0644 H   0  0  0  0  0  0  0  0  0  0  0  0
    4.3926   -1.2796   -0.9065 H   0  0  0  0  0  0  0  0  0  0  0  0
    5.3300    0.1909   -0.7062 H   0  0  0  0  0  0  0  0  0  0  0  0
    4.7554   -0.6858    0.7295 H   0  0  0  0  0  0  0  0  0  0  0  0
  1  2  1  0
  2  3  2  0
  3  4  1  0
  4  5  2  0
  5  6  1  0
  6  7  1  0
  7  8  1  0
  8  9  2  0
  9 10  1  0
 10 11  1  0
 11 12  1  0
 12 13  1  0
 12 14  1  0
  9 15  1  0
 15  2  1  0
 15  6  2  0
  1 16  1  0
  1 17  1  0
  1 18  1  0
  3 19  1  0
  4 20  1  0
  5 21  1  0
  7 22  1  0
  8 23  1  0
 10 24  1  0
 10 25  1  0
 11 26  1  0
 11 27  1  0
 13 28  1  0
 13 29  1  0
 13 30  1  0
 14 31  1  0
 14 32  1  0
 14 33  1  0
M  END
>  <input_smiles>  (12) 
CN(C)CCc1c[nH]c2cccc(C)c12

>  <prot_variant_index>  (12) 
0

>  <SMILES>  (12) 
Cc1cccc2[nH]cc(CCN(C)C)c12

$$$$
DMT__p1
     RDKit          3D

 34 35  0  0  0  0  0  0  0  0999 V2000
    1.2506   -2.0610   -1.1539 C   0  0  0  0  0  0  0  0  0  0  0  0
    1.8612   -1.0057   -0.2721 C   0  0  0  0  0  0  0  0  0  0  0  0
    2.9599   -1.3877    0.5308 C   0  0  0  0  0  0  0  0  0  0  0  0
    3.6340   -0.4778    1.3371 C   0  0  0  0  0  0  0  0  0  0  0  0
    3.2486    0.8574    1.3710 C   0  0  0  0  0  0  0  0  0  0  0  0
    2.1518    1.2383    0.5915 C   0  0  0  0  0  0  0  0  0  0  0  0
    1.6077    2.4898    0.4335 N   0  0  0  0  0  0  0  0  0  0  0  0
    0.5151    2.4251   -0.3822 C   0  0  0  0  0  0  0  0  0  0  0  0
    0.3477    1.1140   -0.7902 C   0  0  0  0  0  0  0  0  0  0  0  0
   -0.7861    0.6435   -1.6524 C   0  0  0  0  0  0  0  0  0  0  0  0
   -2.1333    0.7050   -0.9147 C   0  0  0  0  0  0  0  0  0  0  0  0
   -2.1412   -0.2066    0.3061 N   0  0  0  0  0  0  0  0  0  0  0  0
   -2.9222    0.3778    1.4477 C   0  0  0  0  0  0  0  0  0  0  0  0
   -2.5864   -1.6032   -0.0111 C   0  0  0  0  0  0  0  0  0  0  0  0
    1.4261    0.3493   -0.2100 C   0  0  0  0  0  0  0  0  0  0  0  0
    1.1656   -1.6952   -2.1812 H   0  0  0  0  0  0  0  0  0  0  0  0
    1.8644   -2.9675   -1.1881 H   0  0  0  0  0  0  0  0  0  0  0  0
    0.2654   -2.3392   -0.7741 H   0  0  0  0  0  0  0  0  0  0  0  0
    3.3173   -2.4172    0.5111 H   0  0  0  0  0  0  0  0  0  0  0  0
    4.4866   -0.8073    1.9279 H   0  0  0  0  0  0  0  0  0  0  0  0
    3.7940    1.5745    1.9778 H   0  0  0  0  0  0  0  0  0  0  0  0
    1.9748    3.3302    0.8625 H   0  0  0  0  0  0  0  0  0  0  0  0
   -0.0443    3.3247   -0.6076 H   0  0  0  0  0  0  0  0  0  0  0  0
   -0.8428    1.2879   -2.5388 H   0  0  0  0  0  0  0  0  0  0  0  0
   -0.6161   -0.3680   -2.0246 H   0  0  0  0  0  0  0  0  0  0  0  0
   -2.3282    1.7254   -0.5647 H   0  0  0  0  0  0  0  0  0  0  0  0
   -2.9624    0.4012   -1.5629 H   0  0  0  0  0  0  0  0  0  0  0  0
   -1.1665   -0.2643    0.6423 H   0  0  0  0  0  0  0  0  0  0  0  0
   -3.9609    0.5032    1.1307 H   0  0  0  0  0  0  0  0  0  0  0  0
   -2.4718    1.3387    1.7107 H   0  0  0  0  0  0  0  0  0  0  0  0
   -2.8504   -0.3081    2.2960 H   0  0  0  0  0  0  0  0  0  0  0  0
   -2.0021   -1.9718   -0.8561 H   0  0  0  0  0  0  0  0  0  0  0  0
   -2.4058   -2.2242    0.8701 H   0  0  0  0  0  0  0  0  0  0  0  0
   -3.6504   -1.5811   -0.2621 H   0  0  0  0  0  0  0  0  0  0  0  0
  1  2  1  0
  2  3  2  0
  3  4  1  0
  4  5  2  0
  5  6  1  0
  6  7  1  0
  7  8  1  0
  8  9  2  0
  9 10  1  0
 10 11  1  0
 11 12  1  0
 12 13  1  0
 12 14  1  0
  9 15  1  0
 15  2  1  0
 15  6  2  0
  1 16  1  0
  1 17  1  0
  1 18  1  0
  3 19  1  0
  4 20  1  0
  5 21  1  0
  7 22  1  0
  8 23  1  0
 10 24  1  0
 10 25  1  0
 11 26  1  0
 11 27  1  0
 12 28  1  0
 13 29  1  0
 13 30  1  0
 13 31  1  0
 14 32  1  0
 14 33  1  0
 14 34  1  0
M  CHG  1  12   1
M  END
>  <input_smiles>  (13) 
CN(C)CCc1c[nH]c2cccc(C)c12

>  <prot_variant_index>  (13) 
1

>  <SMILES>  (13) 
Cc1cccc2[nH]cc(CC[NH+](C)C)c12

$$$$
LSD__p0
     RDKit          3D

 54 58  0  0  0  0  0  0  0  0999 V2000
   -1.1698    3.4839   -1.3883 C   0  0  0  0  0  0  0  0  0  0  0  0
   -0.8965    2.1017   -0.9765 N   0  0  0  0  0  0  0  0  0  0  0  0
   -0.5967    1.8621    0.3604 C   0  0  0  0  0  0  0  0  0  0  0  0
   -0.0797    0.7095    0.8068 C   0  0  0  0  0  0  0  0  0  0  0  0
   -0.4192    0.1649    2.1581 C   0  0  0  0  0  0  0  0  0  0  0  0
   -1.0148   -1.2461    1.9552 C   0  0  0  0  0  0  0  0  0  0  0  0
   -1.5488   -1.5523    0.5023 C   0  0  1  0  0  0  0  0  0  0  0  0
   -3.0562   -1.3340    0.3602 C   0  0  0  0  0  0  0  0  0  0  0  0
   -3.7274   -0.2599    0.9650 C   0  0  0  0  0  0  0  0  0  0  0  0
   -5.1092   -0.1027    0.8193 C   0  0  0  0  0  0  0  0  0  0  0  0
   -5.8368   -1.0199    0.0668 C   0  0  0  0  0  0  0  0  0  0  0  0
   -7.5358   -0.8216   -0.1153 Cl  0  0  0  0  0  0  0  0  0  0  0  0
   -5.1955   -2.0937   -0.5422 C   0  0  0  0  0  0  0  0  0  0  0  0
   -3.8149   -2.2493   -0.3948 C   0  0  0  0  0  0  0  0  0  0  0  0
   -0.6795   -1.0765   -0.6219 N   0  0  0  0  0  0  0  0  0  0  0  0
   -1.3043   -0.3541   -1.7523 C   0  0  0  0  0  0  0  0  0  0  0  0
   -1.8153    1.1163   -1.6372 C   0  0  0  0  0  0  0  0  0  0  0  0
    0.4981   -0.3449   -0.1045 C   0  0  1  0  0  0  0  0  0  0  0  0
    1.5521    0.1217   -1.1497 C   0  0  0  0  0  0  0  0  0  0  0  0
    2.8466    0.5597   -0.5192 C   0  0  0  0  0  0  0  0  0  0  0  0
    3.2236    1.8605   -0.2467 C   0  0  0  0  0  0  0  0  0  0  0  0
    4.4629    1.8385    0.3302 N   0  0  0  0  0  0  0  0  0  0  0  0
    4.9141    0.5442    0.4415 C   0  0  0  0  0  0  0  0  0  0  0  0
    6.1145    0.0485    0.9647 C   0  0  0  0  0  0  0  0  0  0  0  0
    6.3061   -1.3361    0.9474 C   0  0  0  0  0  0  0  0  0  0  0  0
    5.3350   -2.1882    0.4271 C   0  0  0  0  0  0  0  0  0  0  0  0
    4.1406   -1.6754   -0.0919 C   0  0  0  0  0  0  0  0  0  0  0  0
    3.9217   -0.2822   -0.0865 C   0  0  0  0  0  0  0  0  0  0  0  0
   -2.1590    3.8045   -1.0437 H   0  0  0  0  0  0  0  0  0  0  0  0
   -0.4164    4.1637   -0.9752 H   0  0  0  0  0  0  0  0  0  0  0  0
   -1.1287    3.5750   -2.4787 H   0  0  0  0  0  0  0  0  0  0  0  0
   -1.0326    2.5922    1.0390 H   0  0  0  0  0  0  0  0  0  0  0  0
   -1.1431    0.8011    2.6795 H   0  0  0  0  0  0  0  0  0  0  0  0
    0.4748    0.1117    2.7894 H   0  0  0  0  0  0  0  0  0  0  0  0
   -0.2150   -1.9698    2.1724 H   0  0  0  0  0  0  0  0  0  0  0  0
   -1.7836   -1.4395    2.7138 H   0  0  0  0  0  0  0  0  0  0  0  0
   -1.4429   -2.6469    0.4456 H   0  0  0  0  0  0  0  0  0  0  0  0
   -3.1830    0.4797    1.5448 H   0  0  0  0  0  0  0  0  0  0  0  0
   -5.6072    0.7390    1.2932 H   0  0  0  0  0  0  0  0  0  0  0  0
   -5.7591   -2.8119   -1.1313 H   0  0  0  0  0  0  0  0  0  0  0  0
   -3.3239   -3.0917   -0.8798 H   0  0  0  0  0  0  0  0  0  0  0  0
   -2.1208   -0.9623   -2.1597 H   0  0  0  0  0  0  0  0  0  0  0  0
   -0.5761   -0.3641   -2.5746 H   0  0  0  0  0  0  0  0  0  0  0  0
   -2.7806    1.1450   -1.1235 H   0  0  0  0  0  0  0  0  0  0  0  0
   -2.0137    1.4568   -2.6621 H   0  0  0  0  0  0  0  0  0  0  0  0
    1.0615   -1.0610    0.5118 H   0  0  0  0  0  0  0  0  0  0  0  0
    1.1860    0.9276   -1.7935 H   0  0  0  0  0  0  0  0  0  0  0  0
    1.7738   -0.7177   -1.8230 H   0  0  0  0  0  0  0  0  0  0  0  0
    2.7025    2.7946   -0.4111 H   0  0  0  0  0  0  0  0  0  0  0  0
    4.9773    2.6525    0.6346 H   0  0  0  0  0  0  0  0  0  0  0  0
    6.8729    0.7098    1.3700 H   0  0  0  0  0  0  0  0  0  0  0  0
    7.2282   -1.7530    1.3457 H   0  0  0  0  0  0  0  0  0  0  0  0
    5.5039   -3.2619    0.4221 H   0  0  0  0  0  0  0  0  0  0  0  0
    3.3897   -2.3480   -0.4956 H   0  0  0  0  0  0  0  0  0  0  0  0
  1  2  1  0
  2  3  1  0
  3  4  2  0
  4  5  1  0
  5  6  1  0
  6  7  1  0
  7  8  1  0
  8  9  2  0
  9 10  1  0
 10 11  2  0
 11 12  1  0
 11 13  1  0
 13 14  2  0
  7 15  1  0
 15 16  1  0
 16 17  1  0
 15 18  1  0
 18 19  1  0
 19 20  1  0
 20 21  2  0
 21 22  1  0
 22 23  1  0
 23 24  2  0
 24 25  1  0
 25 26  2  0
 26 27  1  0
 27 28  2  0
 17  2  1  0
 28 20  1  0
 18  4  1  0
 28 23  1  0
 14  8  1  0
  1 29  1  0
  1 30  1  0
  1 31  1  0
  3 32  1  0
  5 33  1  0
  5 34  1  0
  6 35  1  0
  6 36  1  0
  7 37  1  1
  9 38  1  0
 10 39  1  0
 13 40  1  0
 14 41  1  0
 16 42  1  0
 16 43  1  0
 17 44  1  0
 17 45  1  0
 18 46  1  1
 19 47  1  0
 19 48  1  0
 21 49  1  0
 22 50  1  0
 24 51  1  0
 25 52  1  0
 26 53  1  0
 27 54  1  0
M  END
>  <input_smiles>  (14) 
CN1CCN(C2CC3=CNC4=CC=CC=C34)C(CCC2=C1)c5ccc(Cl)cc5

>  <prot_variant_index>  (14) 
0

>  <SMILES>  (14) 
CN1C=C2CC[C@@H](c3ccc(Cl)cc3)N(CC1)[C@H]2Cc1c[nH]c2ccccc12

$$$$
LSD__p1
     RDKit          3D

 55 59  0  0  0  0  0  0  0  0999 V2000
   -0.9877    5.0027    2.2403 C   0  0  0  0  0  0  0  0  0  0  0  0
   -0.6693    3.6753    1.6052 N   0  0  2  0  0  0  0  0  0  0  0  0
   -1.2209    3.6046    0.2781 C   0  0  0  0  0  0  0  0  0  0  0  0
   -0.8966    2.5406   -0.4799 C   0  0  0  0  0  0  0  0  0  0  0  0
   -1.7302    2.1375   -1.6652 C   0  0  0  0  0  0  0  0  0  0  0  0
   -2.0802    0.6346   -1.6248 C   0  0  0  0  0  0  0  0  0  0  0  0
   -1.9267   -0.0902   -0.2422 C   0  0  1  0  0  0  0  0  0  0  0  0
   -1.6859   -1.5995   -0.3897 C   0  0  0  0  0  0  0  0  0  0  0  0
   -2.3958   -2.3455   -1.3500 C   0  0  0  0  0  0  0  0  0  0  0  0
   -2.2109   -3.7266   -1.4769 C   0  0  0  0  0  0  0  0  0  0  0  0
   -1.3257   -4.3882   -0.6328 C   0  0  0  0  0  0  0  0  0  0  0  0
   -1.0860   -6.0822   -0.7985 Cl  0  0  0  0  0  0  0  0  0  0  0  0
   -0.6354   -3.6823    0.3449 C   0  0  0  0  0  0  0  0  0  0  0  0
   -0.8199   -2.3012    0.4686 C   0  0  0  0  0  0  0  0  0  0  0  0
   -0.9523    0.5496    0.7012 N   0  0  0  0  0  0  0  0  0  0  0  0
   -1.6890    1.2338    1.8105 C   0  0  0  0  0  0  0  0  0  0  0  0
   -1.0656    2.4837    2.5163 C   0  0  0  0  0  0  0  0  0  0  0  0
    0.0047    1.4412    0.0278 C   0  0  1  0  0  0  0  0  0  0  0  0
    0.9980    0.8511   -1.0161 C   0  0  0  0  0  0  0  0  0  0  0  0
    2.1412    0.0803   -0.4137 C   0  0  0  0  0  0  0  0  0  0  0  0
    3.0804    0.5503    0.4875 C   0  0  0  0  0  0  0  0  0  0  0  0
    3.9601   -0.4634    0.7644 N   0  0  0  0  0  0  0  0  0  0  0  0
    3.6336   -1.5864    0.0443 C   0  0  0  0  0  0  0  0  0  0  0  0
    4.2556   -2.8403    0.0047 C   0  0  0  0  0  0  0  0  0  0  0  0
    3.7145   -3.8066   -0.8471 C   0  0  0  0  0  0  0  0  0  0  0  0
    2.6014   -3.5244   -1.6327 C   0  0  0  0  0  0  0  0  0  0  0  0
    1.9947   -2.2639   -1.5822 C   0  0  0  0  0  0  0  0  0  0  0  0
    2.5092   -1.2734   -0.7192 C   0  0  0  0  0  0  0  0  0  0  0  0
   -0.5905    5.7963    1.6002 H   0  0  0  0  0  0  0  0  0  0  0  0
   -0.4917    5.0321    3.2145 H   0  0  0  0  0  0  0  0  0  0  0  0
   -2.0723    5.0921    2.3552 H   0  0  0  0  0  0  0  0  0  0  0  0
    0.3583    3.6601    1.5354 H   0  0  0  0  0  0  0  0  0  0  0  0
   -1.9815    4.3120   -0.0581 H   0  0  0  0  0  0  0  0  0  0  0  0
   -2.6624    2.7151   -1.6962 H   0  0  0  0  0  0  0  0  0  0  0  0
   -1.1903    2.3633   -2.5923 H   0  0  0  0  0  0  0  0  0  0  0  0
   -3.1161    0.5198   -1.9730 H   0  0  0  0  0  0  0  0  0  0  0  0
   -1.4773    0.1291   -2.3898 H   0  0  0  0  0  0  0  0  0  0  0  0
   -2.9254   -0.0571    0.2179 H   0  0  0  0  0  0  0  0  0  0  0  0
   -3.1110   -1.8663   -2.0147 H   0  0  0  0  0  0  0  0  0  0  0  0
   -2.7635   -4.2788   -2.2330 H   0  0  0  0  0  0  0  0  0  0  0  0
    0.0607   -4.1925    1.0058 H   0  0  0  0  0  0  0  0  0  0  0  0
   -0.2545   -1.7824    1.2396 H   0  0  0  0  0  0  0  0  0  0  0  0
   -1.8746    0.4768    2.5827 H   0  0  0  0  0  0  0  0  0  0  0  0
   -2.6829    1.5591    1.4708 H   0  0  0  0  0  0  0  0  0  0  0  0
   -0.1517    2.2072    3.0540 H   0  0  0  0  0  0  0  0  0  0  0  0
   -1.7879    2.8673    3.2464 H   0  0  0  0  0  0  0  0  0  0  0  0
    0.6766    1.8272    0.7999 H   0  0  0  0  0  0  0  0  0  0  0  0
    0.4969    0.2204   -1.7513 H   0  0  0  0  0  0  0  0  0  0  0  0
    1.4348    1.6807   -1.5898 H   0  0  0  0  0  0  0  0  0  0  0  0
    3.2127    1.5177    0.9505 H   0  0  0  0  0  0  0  0  0  0  0  0
    4.7554   -0.4003    1.3855 H   0  0  0  0  0  0  0  0  0  0  0  0
    5.1308   -3.0621    0.6070 H   0  0  0  0  0  0  0  0  0  0  0  0
    4.1735   -4.7917   -0.9008 H   0  0  0  0  0  0  0  0  0  0  0  0
    2.1952   -4.2901   -2.2897 H   0  0  0  0  0  0  0  0  0  0  0  0
    1.1235   -2.0666   -2.1994 H   0  0  0  0  0  0  0  0  0  0  0  0
  1  2  1  0
  2  3  1  0
  3  4  2  0
  4  5  1  0
  5  6  1  0
  6  7  1  0
  7  8  1  0
  8  9  2  0
  9 10  1  0
 10 11  2  0
 11 12  1  0
 11 13  1  0
 13 14  2  0
  7 15  1  0
 15 16  1  0
 16 17  1  0
 15 18  1  0
 18 19  1  0
 19 20  1  0
 20 21  2  0
 21 22  1  0
 22 23  1  0
 23 24  2  0
 24 25  1  0
 25 26  2  0
 26 27  1  0
 27 28  2  0
 17  2  1  0
 28 20  1  0
 18  4  1  0
 28 23  1  0
 14  8  1  0
  1 29  1  0
  1 30  1  0
  1 31  1  0
  2 32  1  6
  3 33  1  0
  5 34  1  0
  5 35  1  0
  6 36  1  0
  6 37  1  0
  7 38  1  1
  9 39  1  0
 10 40  1  0
 13 41  1  0
 14 42  1  0
 16 43  1  0
 16 44  1  0
 17 45  1  0
 17 46  1  0
 18 47  1  1
 19 48  1  0
 19 49  1  0
 21 50  1  0
 22 51  1  0
 24 52  1  0
 25 53  1  0
 26 54  1  0
 27 55  1  0
M  CHG  1   2   1
M  END
>  <input_smiles>  (15) 
CN1CCN(C2CC3=CNC4=CC=CC=C34)C(CCC2=C1)c5ccc(Cl)cc5

>  <prot_variant_index>  (15) 
1

>  <SMILES>  (15) 
C[N@@H+]1C=C2CC[C@@H](c3ccc(Cl)cc3)N(CC1)[C@H]2Cc1c[nH]c2ccccc12

$$$$
LSD__p2
     RDKit          3D

 55 59  0  0  0  0  0  0  0  0999 V2000
   -1.3902   -4.5939    0.1219 C   0  0  0  0  0  0  0  0  0  0  0  0
   -1.0529   -3.1652    0.2289 N   0  0  0  0  0  0  0  0  0  0  0  0
   -0.7335   -2.6217    1.4634 C   0  0  0  0  0  0  0  0  0  0  0  0
   -0.1711   -1.4177    1.6298 C   0  0  0  0  0  0  0  0  0  0  0  0
   -0.4780   -0.5554    2.8177 C   0  0  0  0  0  0  0  0  0  0  0  0
   -1.5745    0.4320    2.3492 C   0  0  0  0  0  0  0  0  0  0  0  0
   -1.3092    1.1049    0.9594 C   0  0  2  0  0  0  0  0  0  0  0  0
   -2.4137    1.9905    0.4000 C   0  0  0  0  0  0  0  0  0  0  0  0
   -3.7582    1.8806    0.7932 C   0  0  0  0  0  0  0  0  0  0  0  0
   -4.7401    2.7018    0.2272 C   0  0  0  0  0  0  0  0  0  0  0  0
   -4.3932    3.6403   -0.7399 C   0  0  0  0  0  0  0  0  0  0  0  0
   -5.6029    4.6418   -1.4361 Cl  0  0  0  0  0  0  0  0  0  0  0  0
   -3.0684    3.7689   -1.1439 C   0  0  0  0  0  0  0  0  0  0  0  0
   -2.0849    2.9514   -0.5776 C   0  0  0  0  0  0  0  0  0  0  0  0
   -0.8319    0.0661   -0.0885 N   0  0  2  0  0  0  0  0  0  0  0  0
   -1.9590   -0.8773   -0.5601 C   0  0  0  0  0  0  0  0  0  0  0  0
   -1.5563   -2.3400   -0.9103 C   0  0  0  0  0  0  0  0  0  0  0  0
    0.3855   -0.6177    0.4962 C   0  0  2  0  0  0  0  0  0  0  0  0
    1.2971   -1.2821   -0.5688 C   0  0  0  0  0  0  0  0  0  0  0  0
    2.7416   -0.9389   -0.3404 C   0  0  0  0  0  0  0  0  0  0  0  0
    3.6449   -1.6804    0.3964 C   0  0  0  0  0  0  0  0  0  0  0  0
    4.8495   -1.0294    0.3817 N   0  0  0  0  0  0  0  0  0  0  0  0
    4.7476    0.1387   -0.3373 C   0  0  0  0  0  0  0  0  0  0  0  0
    5.7142    1.1155   -0.6021 C   0  0  0  0  0  0  0  0  0  0  0  0
    5.3342    2.2063   -1.3878 C   0  0  0  0  0  0  0  0  0  0  0  0
    4.0401    2.3112   -1.8911 C   0  0  0  0  0  0  0  0  0  0  0  0
    3.0840    1.3252   -1.6167 C   0  0  0  0  0  0  0  0  0  0  0  0
    3.4401    0.2167   -0.8197 C   0  0  0  0  0  0  0  0  0  0  0  0
   -1.1346   -4.9662   -0.8754 H   0  0  0  0  0  0  0  0  0  0  0  0
   -0.8239   -5.1866    0.8493 H   0  0  0  0  0  0  0  0  0  0  0  0
   -2.4607   -4.7472    0.2952 H   0  0  0  0  0  0  0  0  0  0  0  0
   -1.1530   -3.1785    2.3026 H   0  0  0  0  0  0  0  0  0  0  0  0
   -0.8417   -1.1386    3.6710 H   0  0  0  0  0  0  0  0  0  0  0  0
    0.4176   -0.0179    3.1492 H   0  0  0  0  0  0  0  0  0  0  0  0
   -2.5217   -0.1208    2.3267 H   0  0  0  0  0  0  0  0  0  0  0  0
   -1.7007    1.2120    3.1107 H   0  0  0  0  0  0  0  0  0  0  0  0
   -0.4454    1.7709    1.1048 H   0  0  0  0  0  0  0  0  0  0  0  0
   -4.0828    1.1665    1.5471 H   0  0  0  0  0  0  0  0  0  0  0  0
   -5.7758    2.6084    0.5506 H   0  0  0  0  0  0  0  0  0  0  0  0
   -2.7965    4.5098   -1.8937 H   0  0  0  0  0  0  0  0  0  0  0  0
   -1.0552    3.0922   -0.9041 H   0  0  0  0  0  0  0  0  0  0  0  0
   -0.5137    0.5935   -0.9062 H   0  0  0  0  0  0  0  0  0  0  0  0
   -2.3881   -0.3937   -1.4455 H   0  0  0  0  0  0  0  0  0  0  0  0
   -2.7287   -0.9006    0.2182 H   0  0  0  0  0  0  0  0  0  0  0  0
   -0.8262   -2.3560   -1.7254 H   0  0  0  0  0  0  0  0  0  0  0  0
   -2.4594   -2.8203   -1.3095 H   0  0  0  0  0  0  0  0  0  0  0  0
    0.9885    0.1992    0.9179 H   0  0  0  0  0  0  0  0  0  0  0  0
    1.0262   -0.9397   -1.5756 H   0  0  0  0  0  0  0  0  0  0  0  0
    1.2179   -2.3745   -0.5705 H   0  0  0  0  0  0  0  0  0  0  0  0
    3.5395   -2.6209    0.9240 H   0  0  0  0  0  0  0  0  0  0  0  0
    5.6960   -1.3554    0.8325 H   0  0  0  0  0  0  0  0  0  0  0  0
    6.7284    1.0312   -0.2230 H   0  0  0  0  0  0  0  0  0  0  0  0
    6.0656    2.9781   -1.6196 H   0  0  0  0  0  0  0  0  0  0  0  0
    3.7776    3.1636   -2.5137 H   0  0  0  0  0  0  0  0  0  0  0  0
    2.0898    1.4191   -2.0391 H   0  0  0  0  0  0  0  0  0  0  0  0
  1  2  1  0
  2  3  1  0
  3  4  2  0
  4  5  1  0
  5  6  1  0
  6  7  1  0
  7  8  1  0
  8  9  2  0
  9 10  1  0
 10 11  2  0
 11 12  1  0
 11 13  1  0
 13 14  2  0
  7 15  1  0
 15 16  1  0
 16 17  1  0
 15 18  1  0
 18 19  1  0
 19 20  1  0
 20 21  2  0
 21 22  1  0
 22 23  1  0
 23 24  2  0
 24 25  1  0
 25 26  2  0
 26 27  1  0
 27 28  2  0
 17  2  1  0
 28 20  1  0
 18  4  1  0
 28 23  1  0
 14  8  1  0
  1 29  1  0
  1 30  1  0
  1 31  1  0
  3 32  1  0
  5 33  1  0
  5 34  1  0
  6 35  1  0
  6 36  1  0
  7 37  1  1
  9 38  1  0
 10 39  1  0
 13 40  1  0
 14 41  1  0
 15 42  1  6
 16 43  1  0
 16 44  1  0
 17 45  1  0
 17 46  1  0
 18 47  1  1
 19 48  1  0
 19 49  1  0
 21 50  1  0
 22 51  1  0
 24 52  1  0
 25 53  1  0
 26 54  1  0
 27 55  1  0
M  CHG  1  15   1
M  END
>  <input_smiles>  (16) 
CN1CCN(C2CC3=CNC4=CC=CC=C34)C(CCC2=C1)c5ccc(Cl)cc5

>  <prot_variant_index>  (16) 
2

>  <SMILES>  (16) 
CN1C=C2CC[C@H](c3ccc(Cl)cc3)[N@H+](CC1)[C@@H]2Cc1c[nH]c2ccccc12

$$$$
LSD__p3
     RDKit          3D

 56 60  0  0  0  0  0  0  0  0999 V2000
    1.1055    4.8435   -0.6047 C   0  0  0  0  0  0  0  0  0  0  0  0
    0.3803    3.5491   -0.2303 N   0  0  2  0  0  0  0  0  0  0  0  0
    0.6835    3.2165    1.1324 C   0  0  0  0  0  0  0  0  0  0  0  0
    0.2003    2.0849    1.6711 C   0  0  0  0  0  0  0  0  0  0  0  0
    0.9289    1.4342    2.8321 C   0  0  0  0  0  0  0  0  0  0  0  0
    1.8083    0.2974    2.2505 C   0  0  0  0  0  0  0  0  0  0  0  0
    1.0938   -0.6160    1.2006 C   0  0  2  0  0  0  0  0  0  0  0  0
    1.9363   -1.6388    0.4615 C   0  0  0  0  0  0  0  0  0  0  0  0
    3.3373   -1.5795    0.3910 C   0  0  0  0  0  0  0  0  0  0  0  0
    4.0571   -2.5340   -0.3372 C   0  0  0  0  0  0  0  0  0  0  0  0
    3.3890   -3.5592   -1.0000 C   0  0  0  0  0  0  0  0  0  0  0  0
    4.2777   -4.7191   -1.9009 Cl  0  0  0  0  0  0  0  0  0  0  0  0
    2.0028   -3.6441   -0.9349 C   0  0  0  0  0  0  0  0  0  0  0  0
    1.2806   -2.6931   -0.2086 C   0  0  0  0  0  0  0  0  0  0  0  0
    0.2830    0.2681    0.2023 N   0  0  2  0  0  0  0  0  0  0  0  0
    1.1730    1.0463   -0.7778 C   0  0  0  0  0  0  0  0  0  0  0  0
    0.6606    2.4375   -1.2764 C   0  0  0  0  0  0  0  0  0  0  0  0
   -0.6958    1.0763    1.0160 C   0  0  2  0  0  0  0  0  0  0  0  0
   -2.0019    1.4608    0.2699 C   0  0  0  0  0  0  0  0  0  0  0  0
   -2.4838    0.3857   -0.6580 C   0  0  0  0  0  0  0  0  0  0  0  0
   -2.6358    0.4945   -2.0274 C   0  0  0  0  0  0  0  0  0  0  0  0
   -3.0524   -0.7186   -2.5154 N   0  0  0  0  0  0  0  0  0  0  0  0
   -3.1293   -1.6325   -1.4918 C   0  0  0  0  0  0  0  0  0  0  0  0
   -3.4659   -2.9899   -1.5322 C   0  0  0  0  0  0  0  0  0  0  0  0
   -3.5225   -3.6802   -0.3199 C   0  0  0  0  0  0  0  0  0  0  0  0
   -3.2701   -3.0321    0.8849 C   0  0  0  0  0  0  0  0  0  0  0  0
   -2.9359   -1.6729    0.9084 C   0  0  0  0  0  0  0  0  0  0  0  0
   -2.8451   -0.9580   -0.3052 C   0  0  0  0  0  0  0  0  0  0  0  0
    2.1839    4.6633   -0.5665 H   0  0  0  0  0  0  0  0  0  0  0  0
    0.8016    5.6218    0.1018 H   0  0  0  0  0  0  0  0  0  0  0  0
    0.7876    5.1161   -1.6150 H   0  0  0  0  0  0  0  0  0  0  0  0
   -0.6069    3.8395   -0.3097 H   0  0  0  0  0  0  0  0  0  0  0  0
    1.4336    3.7931    1.6854 H   0  0  0  0  0  0  0  0  0  0  0  0
    0.2104    1.0356    3.5578 H   0  0  0  0  0  0  0  0  0  0  0  0
    1.5617    2.1472    3.3731 H   0  0  0  0  0  0  0  0  0  0  0  0
    2.1829   -0.3227    3.0744 H   0  0  0  0  0  0  0  0  0  0  0  0
    2.6928    0.7675    1.8039 H   0  0  0  0  0  0  0  0  0  0  0  0
    0.3358   -1.1924    1.7507 H   0  0  0  0  0  0  0  0  0  0  0  0
    3.9146   -0.8130    0.9025 H   0  0  0  0  0  0  0  0  0  0  0  0
    5.1444   -2.4821   -0.3766 H   0  0  0  0  0  0  0  0  0  0  0  0
    1.4818   -4.4569   -1.4385 H   0  0  0  0  0  0  0  0  0  0  0  0
    0.1971   -2.8097   -0.1635 H   0  0  0  0  0  0  0  0  0  0  0  0
   -0.2607   -0.4128   -0.3529 H   0  0  0  0  0  0  0  0  0  0  0  0
    1.3045    0.3844   -1.6411 H   0  0  0  0  0  0  0  0  0  0  0  0
    2.1548    1.1838   -0.3143 H   0  0  0  0  0  0  0  0  0  0  0  0
   -0.2645    2.3271   -1.8489 H   0  0  0  0  0  0  0  0  0  0  0  0
    1.4114    2.8388   -1.9678 H   0  0  0  0  0  0  0  0  0  0  0  0
   -1.0637    0.3992    1.7988 H   0  0  0  0  0  0  0  0  0  0  0  0
   -2.7825    1.6554    1.0180 H   0  0  0  0  0  0  0  0  0  0  0  0
   -1.9188    2.3935   -0.2868 H   0  0  0  0  0  0  0  0  0  0  0  0
   -2.5237    1.3283   -2.7092 H   0  0  0  0  0  0  0  0  0  0  0  0
   -3.2869   -0.9228   -3.4807 H   0  0  0  0  0  0  0  0  0  0  0  0
   -3.7007   -3.4954   -2.4655 H   0  0  0  0  0  0  0  0  0  0  0  0
   -3.8001   -4.7340   -0.3173 H   0  0  0  0  0  0  0  0  0  0  0  0
   -3.3612   -3.5873    1.8175 H   0  0  0  0  0  0  0  0  0  0  0  0
   -2.7887   -1.1919    1.8704 H   0  0  0  0  0  0  0  0  0  0  0  0
  1  2  1  0
  2  3  1  0
  3  4  2  0
  4  5  1  0
  5  6  1  0
  6  7  1  0
  7  8  1  0
  8  9  2  0
  9 10  1  0
 10 11  2  0
 11 12  1  0
 11 13  1  0
 13 14  2  0
  7 15  1  0
 15 16  1  0
 16 17  1  0
 15 18  1  0
 18 19  1  0
 19 20  1  0
 20 21  2  0
 21 22  1  0
 22 23  1  0
 23 24  2  0
 24 25  1  0
 25 26  2  0
 26 27  1  0
 27 28  2  0
 17  2  1  0
 28 20  1  0
 18  4  1  0
 28 23  1  0
 14  8  1  0
  1 29  1  0
  1 30  1  0
  1 31  1  0
  2 32  1  1
  3 33  1  0
  5 34  1  0
  5 35  1  0
  6 36  1  0
  6 37  1  0
  7 38  1  1
  9 39  1  0
 10 40  1  0
 13 41  1  0
 14 42  1  0
 15 43  1  6
 16 44  1  0
 16 45  1  0
 17 46  1  0
 17 47  1  0
 18 48  1  1
 19 49  1  0
 19 50  1  0
 21 51  1  0
 22 52  1  0
 24 53  1  0
 25 54  1  0
 26 55  1  0
 27 56  1  0
M  CHG  2   2   1  15   1
M  END
>  <input_smiles>  (17) 
CN1CCN(C2CC3=CNC4=CC=CC=C34)C(CCC2=C1)c5ccc(Cl)cc5

>  <prot_variant_index>  (17) 
3

>  <SMILES>  (17) 
C[N@@H+]1C=C2CC[C@H](c3ccc(Cl)cc3)[N@H+](CC1)[C@@H]2Cc1c[nH]c2ccccc12

$$$$
DMT_like
     RDKit          3D

 31 32  0  0  0  0  0  0  0  0999 V2000
   -3.2975    0.8247   -1.0769 C   0  0  0  0  0  0  0  0  0  0  0  0
   -2.9383   -0.1998   -0.0355 N   0  0  0  0  0  0  0  0  0  0  0  0
   -3.7453    0.0023    1.2210 C   0  0  0  0  0  0  0  0  0  0  0  0
   -1.4497   -0.2494    0.2773 C   0  0  0  0  0  0  0  0  0  0  0  0
   -0.6364   -0.7900   -0.9029 C   0  0  0  0  0  0  0  0  0  0  0  0
    0.7930   -0.9925   -0.5256 C   0  0  0  0  0  0  0  0  0  0  0  0
    1.3896   -2.1917   -0.1889 C   0  0  0  0  0  0  0  0  0  0  0  0
    2.7078   -1.9509    0.0992 N   0  0  0  0  0  0  0  0  0  0  0  0
    2.9829   -0.6102   -0.0312 C   0  0  0  0  0  0  0  0  0  0  0  0
    4.1821    0.0833    0.1690 C   0  0  0  0  0  0  0  0  0  0  0  0
    4.1778    1.4626   -0.0527 C   0  0  0  0  0  0  0  0  0  0  0  0
    3.0204    2.1191   -0.4617 C   0  0  0  0  0  0  0  0  0  0  0  0
    1.8288    1.4107   -0.6574 C   0  0  0  0  0  0  0  0  0  0  0  0
    1.8049    0.0177   -0.4350 C   0  0  0  0  0  0  0  0  0  0  0  0
   -2.8128    0.5502   -2.0158 H   0  0  0  0  0  0  0  0  0  0  0  0
   -4.3824    0.8061   -1.2121 H   0  0  0  0  0  0  0  0  0  0  0  0
   -2.9645    1.8067   -0.7308 H   0  0  0  0  0  0  0  0  0  0  0  0
   -3.2056   -1.1221   -0.4055 H   0  0  0  0  0  0  0  0  0  0  0  0
   -4.8048   -0.0304    0.9534 H   0  0  0  0  0  0  0  0  0  0  0  0
   -3.4787    0.9701    1.6542 H   0  0  0  0  0  0  0  0  0  0  0  0
   -3.5137   -0.8148    1.9093 H   0  0  0  0  0  0  0  0  0  0  0  0
   -1.1406    0.7619    0.5658 H   0  0  0  0  0  0  0  0  0  0  0  0
   -1.3347   -0.9102    1.1449 H   0  0  0  0  0  0  0  0  0  0  0  0
   -1.0641   -1.7408   -1.2448 H   0  0  0  0  0  0  0  0  0  0  0  0
   -0.6844   -0.1005   -1.7533 H   0  0  0  0  0  0  0  0  0  0  0  0
    1.0013   -3.2009   -0.1366 H   0  0  0  0  0  0  0  0  0  0  0  0
    3.3889   -2.6505    0.3652 H   0  0  0  0  0  0  0  0  0  0  0  0
    5.0898   -0.4250    0.4800 H   0  0  0  0  0  0  0  0  0  0  0  0
    5.0962    2.0293    0.0902 H   0  0  0  0  0  0  0  0  0  0  0  0
    3.0468    3.1925   -0.6369 H   0  0  0  0  0  0  0  0  0  0  0  0
    0.9431    1.9424   -0.9885 H   0  0  0  0  0  0  0  0  0  0  0  0
  1  2  1  0
  2  3  1  0
  2  4  1  0
  4  5  1  0
  5  6  1  0
  6  7  2  0
  7  8  1  0
  8  9  1  0
  9 10  2  0
 10 11  1  0
 11 12  2  0
 12 13  1  0
 13 14  2  0
 14  6  1  0
 14  9  1  0
  1 15  1  0
  1 16  1  0
  1 17  1  0
  2 18  1  0
  3 19  1  0
  3 20  1  0
  3 21  1  0
  4 22  1  0
  4 23  1  0
  5 24  1  0
  5 25  1  0
  7 26  1  0
  8 27  1  0
 10 28  1  0
 11 29  1  0
 12 30  1  0
 13 31  1  0
M  CHG  1   2   1
M  END
>  <SMILES>  (18) 
C[NH+](C)CCc1c[nH]c2ccccc12

$$$$
DMT_like
     RDKit          3D

 30 31  0  0  0  0  0  0  0  0999 V2000
   -3.0295    1.8329    0.0775 C   0  0  0  0  0  0  0  0  0  0  0  0
   -3.0448    0.3727    0.1852 N   0  0  0  0  0  0  0  0  0  0  0  0
   -3.8431   -0.0267    1.3479 C   0  0  0  0  0  0  0  0  0  0  0  0
   -1.6808   -0.1853    0.3002 C   0  0  0  0  0  0  0  0  0  0  0  0
   -0.8421   -0.0405   -0.9822 C   0  0  0  0  0  0  0  0  0  0  0  0
    0.4920   -0.7143   -0.8608 C   0  0  0  0  0  0  0  0  0  0  0  0
    0.8208   -1.9711   -1.3307 C   0  0  0  0  0  0  0  0  0  0  0  0
    2.1302   -2.2183   -1.0193 N   0  0  0  0  0  0  0  0  0  0  0  0
    2.6715   -1.1460   -0.3501 C   0  0  0  0  0  0  0  0  0  0  0  0
    3.9627   -0.9580    0.1577 C   0  0  0  0  0  0  0  0  0  0  0  0
    4.2361    0.2527    0.8009 C   0  0  0  0  0  0  0  0  0  0  0  0
    3.2562    1.2339    0.9291 C   0  0  0  0  0  0  0  0  0  0  0  0
    1.9704    1.0291    0.4153 C   0  0  0  0  0  0  0  0  0  0  0  0
    1.6677   -0.1837   -0.2376 C   0  0  0  0  0  0  0  0  0  0  0  0
   -4.0520    2.2253    0.0311 H   0  0  0  0  0  0  0  0  0  0  0  0
   -2.5417    2.1577   -0.8466 H   0  0  0  0  0  0  0  0  0  0  0  0
   -2.5205    2.3052    0.9255 H   0  0  0  0  0  0  0  0  0  0  0  0
   -3.4216    0.3483    2.2877 H   0  0  0  0  0  0  0  0  0  0  0  0
   -3.9135   -1.1183    1.4114 H   0  0  0  0  0  0  0  0  0  0  0  0
   -4.8698    0.3454    1.2568 H   0  0  0  0  0  0  0  0  0  0  0  0
   -1.7592   -1.2590    0.5204 H   0  0  0  0  0  0  0  0  0  0  0  0
   -1.1516    0.2656    1.1508 H   0  0  0  0  0  0  0  0  0  0  0  0
   -1.3900   -0.4714   -1.8301 H   0  0  0  0  0  0  0  0  0  0  0  0
   -0.6757    1.0162   -1.2209 H   0  0  0  0  0  0  0  0  0  0  0  0
    0.2317   -2.7081   -1.8604 H   0  0  0  0  0  0  0  0  0  0  0  0
    2.6331   -3.0647   -1.2458 H   0  0  0  0  0  0  0  0  0  0  0  0
    4.7286   -1.7199    0.0584 H   0  0  0  0  0  0  0  0  0  0  0  0
    5.2298    0.4301    1.2059 H   0  0  0  0  0  0  0  0  0  0  0  0
    3.4901    2.1689    1.4318 H   0  0  0  0  0  0  0  0  0  0  0  0
    1.2146    1.8015    0.5198 H   0  0  0  0  0  0  0  0  0  0  0  0
  1  2  1  0
  2  3  1  0
  2  4  1  0
  4  5  1  0
  5  6  1  0
  6  7  2  0
  7  8  1  0
  8  9  1  0
  9 10  2  0
 10 11  1  0
 11 12  2  0
 12 13  1  0
 13 14  2  0
 14  6  1  0
 14  9  1  0
  1 15  1  0
  1 16  1  0
  1 17  1  0
  3 18  1  0
  3 19  1  0
  3 20  1  0
  4 21  1  0
  4 22  1  0
  5 23  1  0
  5 24  1  0
  7 25  1  0
  8 26  1  0
 10 27  1  0
 11 28  1  0
 12 29  1  0
 13 30  1  0
M  END
>  <SMILES>  (19) 
CN(C)CCc1c[nH]c2ccccc12

$$$$
Tryptamine_like
     RDKit          3D

 25 26  0  0  0  0  0  0  0  0999 V2000
   -3.6885    0.8258   -0.0704 N   0  0  0  0  0  0  0  0  0  0  0  0
   -2.3623    0.2561   -0.4309 C   0  0  0  0  0  0  0  0  0  0  0  0
   -1.5933   -0.1323    0.8299 C   0  0  0  0  0  0  0  0  0  0  0  0
   -0.2681   -0.7239    0.4935 C   0  0  0  0  0  0  0  0  0  0  0  0
    0.0344   -2.0698    0.4271 C   0  0  0  0  0  0  0  0  0  0  0  0
    1.3538   -2.1980    0.0780 N   0  0  0  0  0  0  0  0  0  0  0  0
    1.9183   -0.9570   -0.0989 C   0  0  0  0  0  0  0  0  0  0  0  0
    3.2241   -0.6095   -0.4634 C   0  0  0  0  0  0  0  0  0  0  0  0
    3.5310    0.7501   -0.5566 C   0  0  0  0  0  0  0  0  0  0  0  0
    2.5697    1.7214   -0.2913 C   0  0  0  0  0  0  0  0  0  0  0  0
    1.2676    1.3571    0.0721 C   0  0  0  0  0  0  0  0  0  0  0  0
    0.9302   -0.0095    0.1676 C   0  0  0  0  0  0  0  0  0  0  0  0
   -4.2114    1.0906   -0.9159 H   0  0  0  0  0  0  0  0  0  0  0  0
   -3.5957    1.6704    0.5093 H   0  0  0  0  0  0  0  0  0  0  0  0
   -4.2653    0.1485    0.4462 H   0  0  0  0  0  0  0  0  0  0  0  0
   -1.8403    1.0227   -1.0122 H   0  0  0  0  0  0  0  0  0  0  0  0
   -2.5569   -0.6085   -1.0738 H   0  0  0  0  0  0  0  0  0  0  0  0
   -2.1803   -0.8508    1.4161 H   0  0  0  0  0  0  0  0  0  0  0  0
   -1.4529    0.7474    1.4703 H   0  0  0  0  0  0  0  0  0  0  0  0
   -0.5637   -2.9544    0.6067 H   0  0  0  0  0  0  0  0  0  0  0  0
    1.8512   -3.0726   -0.0319 H   0  0  0  0  0  0  0  0  0  0  0  0
    3.9803   -1.3628   -0.6632 H   0  0  0  0  0  0  0  0  0  0  0  0
    4.5394    1.0523   -0.8335 H   0  0  0  0  0  0  0  0  0  0  0  0
    2.8380    2.7734   -0.3612 H   0  0  0  0  0  0  0  0  0  0  0  0
    0.5407    2.1333    0.2866 H   0  0  0  0  0  0  0  0  0  0  0  0
  1  2  1  0
  2  3  1  0
  3  4  1  0
  4  5  2  0
  5  6  1  0
  6  7  1  0
  7  8  2  0
  8  9  1  0
  9 10  2  0
 10 11  1  0
 11 12  2  0
 12  4  1  0
 12  7  1  0
  1 13  1  0
  1 14  1  0
  1 15  1  0
  2 16  1  0
  2 17  1  0
  3 18  1  0
  3 19  1  0
  5 20  1  0
  6 21  1  0
  8 22  1  0
  9 23  1  0
 10 24  1  0
 11 25  1  0
M  CHG  1   1   1
M  END
>  <SMILES>  (20) 
[NH3+]CCc1c[nH]c2ccccc12

$$$$
Tryptamine_like
     RDKit          3D

 24 25  0  0  0  0  0  0  0  0999 V2000
   -2.6911   -1.1914   -0.4856 N   0  0  0  0  0  0  0  0  0  0  0  0
   -2.7972    0.2250   -0.1312 C   0  0  0  0  0  0  0  0  0  0  0  0
   -1.7708    0.6677    0.9220 C   0  0  0  0  0  0  0  0  0  0  0  0
   -0.4042    0.9334    0.3673 C   0  0  0  0  0  0  0  0  0  0  0  0
    0.0709    2.1545   -0.0744 C   0  0  0  0  0  0  0  0  0  0  0  0
    1.3647    1.9898   -0.4883 N   0  0  0  0  0  0  0  0  0  0  0  0
    1.7568    0.6833   -0.3203 C   0  0  0  0  0  0  0  0  0  0  0  0
    2.9834    0.0670   -0.5977 C   0  0  0  0  0  0  0  0  0  0  0  0
    3.0986   -1.2993   -0.3265 C   0  0  0  0  0  0  0  0  0  0  0  0
    2.0280   -2.0180    0.1990 C   0  0  0  0  0  0  0  0  0  0  0  0
    0.8096   -1.3848    0.4708 C   0  0  0  0  0  0  0  0  0  0  0  0
    0.6657   -0.0066    0.2097 C   0  0  0  0  0  0  0  0  0  0  0  0
   -3.4134   -1.4258   -1.1642 H   0  0  0  0  0  0  0  0  0  0  0  0
   -2.8623   -1.7669    0.3364 H   0  0  0  0  0  0  0  0  0  0  0  0
   -3.8038    0.3932    0.2686 H   0  0  0  0  0  0  0  0  0  0  0  0
   -2.7031    0.8304   -1.0397 H   0  0  0  0  0  0  0  0  0  0  0  0
   -1.7118   -0.0684    1.7335 H   0  0  0  0  0  0  0  0  0  0  0  0
   -2.1370    1.5931    1.3866 H   0  0  0  0  0  0  0  0  0  0  0  0
   -0.4035    3.1251   -0.1276 H   0  0  0  0  0  0  0  0  0  0  0  0
    1.9549    2.7196   -0.8614 H   0  0  0  0  0  0  0  0  0  0  0  0
    3.8178    0.6237   -1.0107 H   0  0  0  0  0  0  0  0  0  0  0  0
    4.0370   -1.8084   -0.5330 H   0  0  0  0  0  0  0  0  0  0  0  0
    2.1342   -3.0813    0.3970 H   0  0  0  0  0  0  0  0  0  0  0  0
   -0.0233   -1.9549    0.8699 H   0  0  0  0  0  0  0  0  0  0  0  0
  1  2  1  0
  2  3  1  0
  3  4  1  0
  4  5  2  0
  5  6  1  0
  6  7  1  0
  7  8  2  0
  8  9  1  0
  9 10  2  0
 10 11  1  0
 11 12  2  0
 12  4  1  0
 12  7  1  0
  1 13  1  0
  1 14  1  0
  2 15  1  0
  2 16  1  0
  3 17  1  0
  3 18  1  0
  5 19  1  0
  6 20  1  0
  8 21  1  0
  9 22  1  0
 10 23  1  0
 11 24  1  0
M  END
>  <SMILES>  (21) 
NCCc1c[nH]c2ccccc12

$$$$
MET_like
     RDKit          3D

 34 35  0  0  0  0  0  0  0  0999 V2000
   -3.8767    0.1500    0.9888 C   0  0  0  0  0  0  0  0  0  0  0  0
   -3.3347   -0.9611    0.1095 C   0  0  0  0  0  0  0  0  0  0  0  0
   -2.3245   -0.4727   -0.9070 N   0  0  1  0  0  0  0  0  0  0  0  0
   -2.9500    0.3639   -1.9956 C   0  0  0  0  0  0  0  0  0  0  0  0
   -1.0817    0.2052   -0.3455 C   0  0  0  0  0  0  0  0  0  0  0  0
   -0.2869   -0.7195    0.5809 C   0  0  0  0  0  0  0  0  0  0  0  0
    1.0083   -0.0967    0.9823 C   0  0  0  0  0  0  0  0  0  0  0  0
    1.2517    0.6097    2.1439 C   0  0  0  0  0  0  0  0  0  0  0  0
    2.5585    1.0225    2.1310 N   0  0  0  0  0  0  0  0  0  0  0  0
    3.1733    0.6093    0.9728 C   0  0  0  0  0  0  0  0  0  0  0  0
    4.4872    0.8095    0.5339 C   0  0  0  0  0  0  0  0  0  0  0  0
    4.8503    0.2582   -0.6974 C   0  0  0  0  0  0  0  0  0  0  0  0
    3.9352   -0.4668   -1.4557 C   0  0  0  0  0  0  0  0  0  0  0  0
    2.6244   -0.6577   -1.0023 C   0  0  0  0  0  0  0  0  0  0  0  0
    2.2308   -0.1070    0.2355 C   0  0  0  0  0  0  0  0  0  0  0  0
   -4.3600    0.9369    0.4029 H   0  0  0  0  0  0  0  0  0  0  0  0
   -3.0926    0.6042    1.6013 H   0  0  0  0  0  0  0  0  0  0  0  0
   -4.6280   -0.2572    1.6737 H   0  0  0  0  0  0  0  0  0  0  0  0
   -2.8464   -1.7367    0.7072 H   0  0  0  0  0  0  0  0  0  0  0  0
   -4.1430   -1.4413   -0.4529 H   0  0  0  0  0  0  0  0  0  0  0  0
   -1.9879   -1.3201   -1.3841 H   0  0  0  0  0  0  0  0  0  0  0  0
   -3.8171   -0.1746   -2.3866 H   0  0  0  0  0  0  0  0  0  0  0  0
   -3.2390    1.3311   -1.5780 H   0  0  0  0  0  0  0  0  0  0  0  0
   -2.2080    0.4923   -2.7884 H   0  0  0  0  0  0  0  0  0  0  0  0
   -0.4712    0.4858   -1.2123 H   0  0  0  0  0  0  0  0  0  0  0  0
   -1.3966    1.1252    0.1588 H   0  0  0  0  0  0  0  0  0  0  0  0
   -0.0946   -1.6776    0.0829 H   0  0  0  0  0  0  0  0  0  0  0  0
   -0.8673   -0.9453    1.4830 H   0  0  0  0  0  0  0  0  0  0  0  0
    0.6176    0.8505    2.9878 H   0  0  0  0  0  0  0  0  0  0  0  0
    3.0156    1.5510    2.8631 H   0  0  0  0  0  0  0  0  0  0  0  0
    5.2073    1.3672    1.1250 H   0  0  0  0  0  0  0  0  0  0  0  0
    5.8663    0.3927   -1.0639 H   0  0  0  0  0  0  0  0  0  0  0  0
    4.2466   -0.8939   -2.4065 H   0  0  0  0  0  0  0  0  0  0  0  0
    1.9330   -1.2369   -1.6051 H   0  0  0  0  0  0  0  0  0  0  0  0
  1  2  1  0
  2  3  1  0
  3  4  1  0
  3  5  1  0
  5  6  1  0
  6  7  1  0
  7  8  2  0
  8  9  1  0
  9 10  1  0
 10 11  2  0
 11 12  1  0
 12 13  2  0
 13 14  1  0
 14 15  2  0
 15  7  1  0
 15 10  1  0
  1 16  1  0
  1 17  1  0
  1 18  1  0
  2 19  1  0
  2 20  1  0
  3 21  1  6
  4 22  1  0
  4 23  1  0
  4 24  1  0
  5 25  1  0
  5 26  1  0
  6 27  1  0
  6 28  1  0
  8 29  1  0
  9 30  1  0
 11 31  1  0
 12 32  1  0
 13 33  1  0
 14 34  1  0
M  CHG  1   3   1
M  END
>  <SMILES>  (22) 
CC[N@@H+](C)CCc1c[nH]c2ccccc12

$$$$
MET_like
     RDKit          3D

 33 34  0  0  0  0  0  0  0  0999 V2000
   -3.8675    0.3713    1.1696 C   0  0  0  0  0  0  0  0  0  0  0  0
   -3.3708    0.8469   -0.1927 C   0  0  0  0  0  0  0  0  0  0  0  0
   -2.4142   -0.0264   -0.8868 N   0  0  0  0  0  0  0  0  0  0  0  0
   -3.0389   -1.2743   -1.3281 C   0  0  0  0  0  0  0  0  0  0  0  0
   -1.1784   -0.3126   -0.1331 C   0  0  0  0  0  0  0  0  0  0  0  0
   -0.3514    0.9357    0.2231 C   0  0  0  0  0  0  0  0  0  0  0  0
    0.9505    0.5813    0.8770 C   0  0  0  0  0  0  0  0  0  0  0  0
    1.2044    0.5486    2.2348 C   0  0  0  0  0  0  0  0  0  0  0  0
    2.5094    0.1792    2.4196 N   0  0  0  0  0  0  0  0  0  0  0  0
    3.1206   -0.0351    1.2068 C   0  0  0  0  0  0  0  0  0  0  0  0
    4.4335   -0.4240    0.9140 C   0  0  0  0  0  0  0  0  0  0  0  0
    4.7823   -0.5655   -0.4323 C   0  0  0  0  0  0  0  0  0  0  0  0
    3.8540   -0.3268   -1.4427 C   0  0  0  0  0  0  0  0  0  0  0  0
    2.5458    0.0617   -1.1318 C   0  0  0  0  0  0  0  0  0  0  0  0
    2.1676    0.2117    0.2184 C   0  0  0  0  0  0  0  0  0  0  0  0
   -4.5924    1.0890    1.5683 H   0  0  0  0  0  0  0  0  0  0  0  0
   -4.3691   -0.5986    1.1035 H   0  0  0  0  0  0  0  0  0  0  0  0
   -3.0525    0.2939    1.8953 H   0  0  0  0  0  0  0  0  0  0  0  0
   -2.9317    1.8450   -0.0790 H   0  0  0  0  0  0  0  0  0  0  0  0
   -4.2404    1.0050   -0.8439 H   0  0  0  0  0  0  0  0  0  0  0  0
   -3.3156   -1.9247   -0.4915 H   0  0  0  0  0  0  0  0  0  0  0  0
   -2.3574   -1.8326   -1.9800 H   0  0  0  0  0  0  0  0  0  0  0  0
   -3.9369   -1.0719   -1.9224 H   0  0  0  0  0  0  0  0  0  0  0  0
   -1.3980   -0.8862    0.7769 H   0  0  0  0  0  0  0  0  0  0  0  0
   -0.5453   -0.9632   -0.7520 H   0  0  0  0  0  0  0  0  0  0  0  0
   -0.9146    1.5868    0.9022 H   0  0  0  0  0  0  0  0  0  0  0  0
   -0.1533    1.5222   -0.6828 H   0  0  0  0  0  0  0  0  0  0  0  0
    0.5668    0.7588    3.0831 H   0  0  0  0  0  0  0  0  0  0  0  0
    2.9652    0.0772    3.3153 H   0  0  0  0  0  0  0  0  0  0  0  0
    5.1592   -0.6101    1.6986 H   0  0  0  0  0  0  0  0  0  0  0  0
    5.7943   -0.8660   -0.6936 H   0  0  0  0  0  0  0  0  0  0  0  0
    4.1454   -0.4419   -2.4836 H   0  0  0  0  0  0  0  0  0  0  0  0
    1.8294    0.2455   -1.9272 H   0  0  0  0  0  0  0  0  0  0  0  0
  1  2  1  0
  2  3  1  0
  3  4  1  0
  3  5  1  0
  5  6  1  0
  6  7  1  0
  7  8  2  0
  8  9  1  0
  9 10  1  0
 10 11  2  0
 11 12  1  0
 12 13  2  0
 13 14  1  0
 14 15  2  0
 15  7  1  0
 15 10  1  0
  1 16  1  0
  1 17  1  0
  1 18  1  0
  2 19  1  0
  2 20  1  0
  4 21  1  0
  4 22  1  0
  4 23  1  0
  5 24  1  0
  5 25  1  0
  6 26  1  0
  6 27  1  0
  8 28  1  0
  9 29  1  0
 11 30  1  0
 12 31  1  0
 13 32  1  0
 14 33  1  0
M  END
>  <SMILES>  (23) 
CCN(C)CCc1c[nH]c2ccccc12

$$$$
Serotonin
     RDKit          3D

 25 26  0  0  0  0  0  0  0  0999 V2000
    3.4372   -0.7148    0.5932 N   0  0  0  0  0  0  0  0  0  0  0  0
    2.6520    0.5204    0.5566 C   0  0  0  0  0  0  0  0  0  0  0  0
    1.8569    0.6969   -0.7458 C   0  0  0  0  0  0  0  0  0  0  0  0
    0.6543   -0.1906   -0.8457 C   0  0  0  0  0  0  0  0  0  0  0  0
    0.6011   -1.4306   -1.4523 C   0  0  0  0  0  0  0  0  0  0  0  0
   -0.6699   -1.9195   -1.3269 N   0  0  0  0  0  0  0  0  0  0  0  0
   -1.4639   -1.0170   -0.6595 C   0  0  0  0  0  0  0  0  0  0  0  0
   -2.8192   -1.0925   -0.3147 C   0  0  0  0  0  0  0  0  0  0  0  0
   -3.3715   -0.0114    0.3768 C   0  0  0  0  0  0  0  0  0  0  0  0
   -2.5926    1.0902    0.7045 C   0  0  0  0  0  0  0  0  0  0  0  0
   -3.1981    2.1106    1.3818 O   0  0  0  0  0  0  0  0  0  0  0  0
   -1.2409    1.1596    0.3587 C   0  0  0  0  0  0  0  0  0  0  0  0
   -0.6607    0.0797   -0.3418 C   0  0  0  0  0  0  0  0  0  0  0  0
    4.0905   -0.7332   -0.1875 H   0  0  0  0  0  0  0  0  0  0  0  0
    3.9940   -0.7385    1.4455 H   0  0  0  0  0  0  0  0  0  0  0  0
    3.3446    1.3635    0.6602 H   0  0  0  0  0  0  0  0  0  0  0  0
    1.9807    0.5421    1.4223 H   0  0  0  0  0  0  0  0  0  0  0  0
    1.5274    1.7416   -0.8127 H   0  0  0  0  0  0  0  0  0  0  0  0
    2.5121    0.5344   -1.6114 H   0  0  0  0  0  0  0  0  0  0  0  0
    1.3689   -2.0102   -1.9471 H   0  0  0  0  0  0  0  0  0  0  0  0
   -0.9851   -2.8157   -1.6702 H   0  0  0  0  0  0  0  0  0  0  0  0
   -3.4245   -1.9556   -0.5705 H   0  0  0  0  0  0  0  0  0  0  0  0
   -4.4199   -0.0327    0.6621 H   0  0  0  0  0  0  0  0  0  0  0  0
   -2.5375    2.8030    1.5455 H   0  0  0  0  0  0  0  0  0  0  0  0
   -0.6361    2.0204    0.6172 H   0  0  0  0  0  0  0  0  0  0  0  0
  1  2  1  0
  2  3  1  0
  3  4  1  0
  4  5  2  0
  5  6  1  0
  6  7  1  0
  7  8  2  0
  8  9  1  0
  9 10  2  0
 10 11  1  0
 10 12  1  0
 12 13  2  0
 13  4  1  0
 13  7  1  0
  1 14  1  0
  1 15  1  0
  2 16  1  0
  2 17  1  0
  3 18  1  0
  3 19  1  0
  5 20  1  0
  6 21  1  0
  8 22  1  0
  9 23  1  0
 11 24  1  0
 12 25  1  0
M  END
>  <SMILES>  (24) 
NCCc1c[nH]c2ccc(O)cc12

$$$$
/home/aaron_m_kushner/5ht-platform-starter/data/custom_ligands/LSD_from_5TVN.pdb
     RDKit          3D

 49 52  0  0  1  0  0  0  0  0999 V2000
  -25.9760  -12.8170    6.9610 N   0  0  0  0  0  0  0  0  0  0  0  0
  -21.8640  -20.0230   10.8660 N   0  0  0  0  0  0  0  0  0  0  0  0
  -26.2210  -12.9890    9.3950 C   0  0  0  0  0  0  0  0  0  0  0  0
  -25.8660  -13.7760   10.4900 C   0  0  0  0  0  0  0  0  0  0  0  0
  -24.6890  -15.2200    9.0070 C   0  0  0  0  0  0  0  0  0  0  0  0
  -24.7790  -14.6110    6.7450 C   0  0  0  0  0  0  0  0  0  0  0  0
  -25.3380  -13.5970    6.0820 C   0  0  0  0  0  0  0  0  0  0  0  0
  -23.3290  -17.0780    9.7390 C   0  0  0  0  0  0  0  0  0  0  0  0
  -23.0070  -18.8370    8.1620 C   0  0  0  0  0  0  0  0  0  0  0  0
  -23.9880  -15.6910    6.3520 C   0  0  0  0  0  0  0  0  0  0  0  0
  -20.5340  -20.0170   10.2380 C   0  0  0  0  0  0  0  0  0  0  0  0
  -22.7720  -22.2560   11.3810 C   0  0  0  0  0  0  0  0  0  0  0  0
  -22.9350  -17.8090    7.1160 N   0  0  0  0  0  0  0  0  0  0  0  0
  -23.2260  -18.4270    5.8140 C   0  0  0  0  0  0  0  0  0  0  0  0
  -23.9920  -16.8260    7.3920 C   0  0  1  0  0  0  0  0  0  0  0  0
  -25.0800  -14.4300    8.0190 C   0  0  0  0  0  0  0  0  0  0  0  0
  -25.8120  -13.3390    8.1770 C   0  0  0  0  0  0  0  0  0  0  0  0
  -25.0860  -14.9140   10.3020 C   0  0  0  0  0  0  0  0  0  0  0  0
  -23.9390  -16.3500    8.7140 C   0  0  0  0  0  0  0  0  0  0  0  0
  -22.5970  -18.2470    9.5090 C   0  0  2  0  0  0  0  0  0  0  0  0
  -22.8570  -19.1710   10.5330 C   0  0  0  0  0  0  0  0  0  0  0  0
  -23.9590  -19.1900   11.0810 O   0  0  0  0  0  0  0  0  0  0  0  0
  -22.0400  -21.0270   11.9280 C   0  0  0  0  0  0  0  0  0  0  0  0
  -19.4950  -19.6690   11.3030 C   0  0  0  0  0  0  0  0  0  0  0  0
  -26.7960  -12.1423    9.5274 H   0  0  0  0  0  0  0  0  0  0  0  0
  -26.1807  -13.5156   11.4377 H   0  0  0  0  0  0  0  0  0  0  0  0
  -25.2867  -13.4411    5.0631 H   0  0  0  0  0  0  0  0  0  0  0  0
  -23.4229  -16.7378   10.7088 H   0  0  0  0  0  0  0  0  0  0  0  0
  -22.3472  -19.6417    7.9129 H   0  0  0  0  0  0  0  0  0  0  0  0
  -24.0124  -19.1970    8.2296 H   0  0  0  0  0  0  0  0  0  0  0  0
  -22.9825  -15.3505    6.2179 H   0  0  0  0  0  0  0  0  0  0  0  0
  -24.3932  -16.0797    5.4412 H   0  0  0  0  0  0  0  0  0  0  0  0
  -20.5076  -19.2870    9.4562 H   0  0  0  0  0  0  0  0  0  0  0  0
  -20.3220  -20.9791    9.8204 H   0  0  0  0  0  0  0  0  0  0  0  0
  -22.8928  -22.9765   12.1628 H   0  0  0  0  0  0  0  0  0  0  0  0
  -22.2011  -22.6861   10.5847 H   0  0  0  0  0  0  0  0  0  0  0  0
  -23.7335  -21.9641   11.0133 H   0  0  0  0  0  0  0  0  0  0  0  0
  -23.1752  -17.6830    5.0467 H   0  0  0  0  0  0  0  0  0  0  0  0
  -24.2072  -18.8534    5.8329 H   0  0  0  0  0  0  0  0  0  0  0  0
  -22.5074  -19.1944    5.6148 H   0  0  0  0  0  0  0  0  0  0  0  0
  -24.9314  -17.3293    7.2970 H   0  0  0  0  0  0  0  0  0  0  0  0
  -26.3600  -12.5811    8.6967 H   0  0  0  0  0  0  0  0  0  0  0  0
  -24.8121  -15.5102   11.0986 H   0  0  0  0  0  0  0  0  0  0  0  0
  -21.5507  -18.0235    9.4964 H   0  0  0  0  0  0  0  0  0  0  0  0
  -22.6125  -20.6009   12.7253 H   0  0  0  0  0  0  0  0  0  0  0  0
  -21.0776  -21.3262   12.2873 H   0  0  0  0  0  0  0  0  0  0  0  0
  -19.7149  -18.7061   11.7146 H   0  0  0  0  0  0  0  0  0  0  0  0
  -18.5213  -19.6535   10.8597 H   0  0  0  0  0  0  0  0  0  0  0  0
  -19.5213  -20.4037   12.0804 H   0  0  0  0  0  0  0  0  0  0  0  0
  1 17  1  0
  2 23  1  0
  3  4  2  0
  3 25  1  0
  4 26  1  0
  5 18  2  0
  6 16  2  0
  7  6  1  0
  7  1  2  0
  7 27  1  0
  8 28  1  0
  9 20  1  0
  9 29  1  0
  9 30  1  0
 10  6  1  0
 10 15  1  0
 10 31  1  0
 10 32  1  0
 11  2  1  0
 11 24  1  0
 11 33  1  0
 11 34  1  0
 12 23  1  0
 12 35  1  0
 12 36  1  0
 12 37  1  0
 13 15  1  0
 13  9  1  0
 14 13  1  0
 14 38  1  0
 14 39  1  0
 14 40  1  0
 15 19  1  0
 15 41  1  1
 16 17  1  0
 16  5  1  0
 17  3  1  0
 17 42  1  0
 18  4  1  0
 18 43  1  0
 19  5  1  0
 19  8  2  0
 20  8  1  0
 20 21  1  0
 20 44  1  6
 21  2  1  0
 21 22  2  0
 23 45  1  0
 23 46  1  0
 24 47  1  0
 24 48  1  0
 24 49  1  0
M  END
>  <MODEL>  (25) 
       1

>  <SMILES>  (25) 
CCN(CC)C(=O)[C@@H]1C=C2C3=CC=CC4N=CC(=C34)C[C@H]2N(C)C1

$$$$
Psilocin
     RDKit          3D

 31 32  0  0  0  0  0  0  0  0999 V2000
    3.1240   -1.5784   -0.3269 C   0  0  0  0  0  0  0  0  0  0  0  0
    2.9463   -0.3292   -1.0605 N   0  0  0  0  0  0  0  0  0  0  0  0
    3.8942    0.6856   -0.6097 C   0  0  0  0  0  0  0  0  0  0  0  0
    1.5541    0.1493   -1.0584 C   0  0  0  0  0  0  0  0  0  0  0  0
    0.9576    0.5605    0.3014 C   0  0  0  0  0  0  0  0  0  0  0  0
   -0.4888    0.9430    0.1930 C   0  0  0  0  0  0  0  0  0  0  0  0
   -0.9487    2.2415    0.0731 C   0  0  0  0  0  0  0  0  0  0  0  0
   -2.3128    2.2160    0.0196 N   0  0  0  0  0  0  0  0  0  0  0  0
   -2.7678    0.9222    0.1042 C   0  0  0  0  0  0  0  0  0  0  0  0
   -4.0851    0.4418    0.0999 C   0  0  0  0  0  0  0  0  0  0  0  0
   -4.2808   -0.9371    0.2015 C   0  0  0  0  0  0  0  0  0  0  0  0
   -3.1979   -1.8035    0.2967 C   0  0  0  0  0  0  0  0  0  0  0  0
   -1.8920   -1.3063    0.2925 C   0  0  0  0  0  0  0  0  0  0  0  0
   -0.8931   -2.2532    0.3705 O   0  0  0  0  0  0  0  0  0  0  0  0
   -1.6483    0.0870    0.2032 C   0  0  0  0  0  0  0  0  0  0  0  0
    2.4276   -2.3430   -0.6884 H   0  0  0  0  0  0  0  0  0  0  0  0
    4.1331   -1.9739   -0.4885 H   0  0  0  0  0  0  0  0  0  0  0  0
    2.9775   -1.4590    0.7517 H   0  0  0  0  0  0  0  0  0  0  0  0
    4.9226    0.3463   -0.7776 H   0  0  0  0  0  0  0  0  0  0  0  0
    3.7737    1.6116   -1.1827 H   0  0  0  0  0  0  0  0  0  0  0  0
    3.7859    0.9194    0.4548 H   0  0  0  0  0  0  0  0  0  0  0  0
    1.4821    1.0008   -1.7491 H   0  0  0  0  0  0  0  0  0  0  0  0
    0.9263   -0.6269   -1.5157 H   0  0  0  0  0  0  0  0  0  0  0  0
    1.5164    1.4140    0.7057 H   0  0  0  0  0  0  0  0  0  0  0  0
    1.0595   -0.2416    1.0399 H   0  0  0  0  0  0  0  0  0  0  0  0
   -0.4154    3.1822    0.0275 H   0  0  0  0  0  0  0  0  0  0  0  0
   -2.9093    3.0276   -0.0628 H   0  0  0  0  0  0  0  0  0  0  0  0
   -4.9328    1.1154    0.0230 H   0  0  0  0  0  0  0  0  0  0  0  0
   -5.2913   -1.3385    0.2031 H   0  0  0  0  0  0  0  0  0  0  0  0
   -3.3634   -2.8751    0.3695 H   0  0  0  0  0  0  0  0  0  0  0  0
   -0.0534   -1.7986    0.2151 H   0  0  0  0  0  0  0  0  0  0  0  0
  1  2  1  0
  2  3  1  0
  2  4  1  0
  4  5  1  0
  5  6  1  0
  6  7  2  0
  7  8  1  0
  8  9  1  0
  9 10  2  0
 10 11  1  0
 11 12  2  0
 12 13  1  0
 13 14  1  0
 13 15  2  0
 15  6  1  0
 15  9  1  0
  1 16  1  0
  1 17  1  0
  1 18  1  0
  3 19  1  0
  3 20  1  0
  3 21  1  0
  4 22  1  0
  4 23  1  0
  5 24  1  0
  5 25  1  0
  7 26  1  0
  8 27  1  0
 10 28  1  0
 11 29  1  0
 12 30  1  0
 14 31  1  0
M  END
>  <SMILES>  (26) 
CN(C)CCc1c[nH]c2cccc(O)c12

$$$$
