DMT_like


 16 17  0  0  0  0  0  0  0  0999 V2000
   23.4267   15.7671    5.9647 C   0  0  0  0  0  0  0  0  0  0  0  0
   23.4343   15.0267    4.7988 C   0  0  0  0  0  0  0  0  0  0  0  0
   23.9391   13.7841    5.0811 N   0  0  0  0  0  0  0  0  0  0  0  0
   24.2516   13.6931    6.4169 C   0  0  0  0  0  0  0  0  0  0  0  0
   24.7803   12.6201    7.1436 C   0  0  0  0  0  0  0  0  0  0  0  0
   25.0143   12.8136    8.5072 C   0  0  0  0  0  0  0  0  0  0  0  0
   24.7335   14.0334    9.1165 C   0  0  0  0  0  0  0  0  0  0  0  0
   24.2047   15.0969    8.3753 C   0  0  0  0  0  0  0  0  0  0  0  0
   23.9539   14.9257    6.9975 C   0  0  0  0  0  0  0  0  0  0  0  0
   24.0714   13.0371    4.4114 H   0  0  0  0  0  0  0  0  0  0  0  0
   22.9508   17.1730    6.1175 C   0  0  0  0  0  0  0  0  0  0  0  0
   22.0188   17.3143    7.3250 C   0  0  0  0  0  0  0  0  0  0  0  0
   22.2371   19.7697    6.7544 C   0  0  0  0  0  0  0  0  0  0  0  0
   21.3991   18.7021    7.4034 N   0  0  0  0  0  0  0  0  0  0  0  0
   21.0721   19.0652    8.8289 C   0  0  0  0  0  0  0  0  0  0  0  0
   20.5017   18.6669    6.9010 H   0  0  0  0  0  0  0  0  0  0  0  0
 13 14  1  0
 14 15  1  0
 14 12  1  0
 12 11  1  0
 11  1  1  0
  1  2  2  0
  2  3  1  0
  3  4  1  0
  4  5  2  0
  5  6  1  0
  6  7  2  0
  7  8  1  0
  8  9  2  0
  9  1  1  0
  9  4  1  0
 14 16  1  0
  3 10  1  0
M  CHG 1  14   1
M  END
> <minimizedAffinity>
-7.21162

> <CNNscore>
0.9379776716

> <CNNaffinity>
5.6684489250

> <CNN_VS>
5.3168783188

> <CNNaffinity_variance>
0.2443612069

$$$$
DMT_like


 16 17  0  0  0  0  0  0  0  0999 V2000
   23.0268   15.5978    6.2871 C   0  0  0  0  0  0  0  0  0  0  0  0
   23.3348   15.1454    5.0191 C   0  0  0  0  0  0  0  0  0  0  0  0
   24.0509   13.9829    5.1389 N   0  0  0  0  0  0  0  0  0  0  0  0
   24.2072   13.6584    6.4657 C   0  0  0  0  0  0  0  0  0  0  0  0
   24.8554   12.5651    7.0517 C   0  0  0  0  0  0  0  0  0  0  0  0
   24.8722   12.4932    8.4468 C   0  0  0  0  0  0  0  0  0  0  0  0
   24.2674   13.4783    9.2225 C   0  0  0  0  0  0  0  0  0  0  0  0
   23.6229   14.5657    8.6206 C   0  0  0  0  0  0  0  0  0  0  0  0
   23.5869   14.6591    7.2133 C   0  0  0  0  0  0  0  0  0  0  0  0
   24.4197   13.4376    4.3703 H   0  0  0  0  0  0  0  0  0  0  0  0
   22.2503   16.8266    6.6244 C   0  0  0  0  0  0  0  0  0  0  0  0
   21.9630   16.9054    8.1270 C   0  0  0  0  0  0  0  0  0  0  0  0
   21.2209   19.2934    8.5125 C   0  0  0  0  0  0  0  0  0  0  0  0
   20.8089   17.8487    8.4347 N   0  0  0  0  0  0  0  0  0  0  0  0
   20.0879   17.4250    9.6883 C   0  0  0  0  0  0  0  0  0  0  0  0
   20.1288   17.7630    7.6671 H   0  0  0  0  0  0  0  0  0  0  0  0
 13 14  1  0
 14 15  1  0
 14 12  1  0
 12 11  1  0
 11  1  1  0
  1  2  2  0
  2  3  1  0
  3  4  1  0
  4  5  2  0
  5  6  1  0
  6  7  2  0
  7  8  1  0
  8  9  2  0
  9  1  1  0
  9  4  1  0
 14 16  1  0
  3 10  1  0
M  CHG 1  14   1
M  END
> <minimizedAffinity>
-6.95998

> <CNNscore>
0.9335463047

> <CNNaffinity>
5.4572434425

> <CNN_VS>
5.0945892334

> <CNNaffinity_variance>
0.1946797371

$$$$
DMT_like


 16 17  0  0  0  0  0  0  0  0999 V2000
   22.4438   15.9342    7.4580 C   0  0  0  0  0  0  0  0  0  0  0  0
   22.1601   16.0996    8.7995 C   0  0  0  0  0  0  0  0  0  0  0  0
   22.8100   15.1179    9.5013 N   0  0  0  0  0  0  0  0  0  0  0  0
   23.5260   14.3179    8.6424 C   0  0  0  0  0  0  0  0  0  0  0  0
   24.3371   13.2100    8.9142 C   0  0  0  0  0  0  0  0  0  0  0  0
   24.9421   12.5685    7.8306 C   0  0  0  0  0  0  0  0  0  0  0  0
   24.7396   13.0166    6.5283 C   0  0  0  0  0  0  0  0  0  0  0  0
   23.9253   14.1266    6.2735 C   0  0  0  0  0  0  0  0  0  0  0  0
   23.3070   14.7958    7.3506 C   0  0  0  0  0  0  0  0  0  0  0  0
   22.7716   14.9884   10.5042 H   0  0  0  0  0  0  0  0  0  0  0  0
   21.9505   16.7867    6.3372 C   0  0  0  0  0  0  0  0  0  0  0  0
   22.4823   18.2185    6.4545 C   0  0  0  0  0  0  0  0  0  0  0  0
   21.5371   20.5234    6.0117 C   0  0  0  0  0  0  0  0  0  0  0  0
   21.3677   19.2159    6.7361 N   0  0  0  0  0  0  0  0  0  0  0  0
   21.2059   19.4371    8.2179 C   0  0  0  0  0  0  0  0  0  0  0  0
   20.4879   18.7941    6.4090 H   0  0  0  0  0  0  0  0  0  0  0  0
 13 14  1  0
 14 15  1  0
 14 12  1  0
 12 11  1  0
 11  1  1  0
  1  2  2  0
  2  3  1  0
  3  4  1  0
  4  5  2  0
  5  6  1  0
  6  7  2  0
  7  8  1  0
  8  9  2  0
  9  1  1  0
  9  4  1  0
 14 16  1  0
  3 10  1  0
M  CHG 1  14   1
M  END
> <minimizedAffinity>
-6.48591

> <CNNscore>
0.9257507324

> <CNNaffinity>
6.0059847832

> <CNN_VS>
5.5600447655

> <CNNaffinity_variance>
0.1010873318

$$$$
DMT_like


 16 17  0  0  0  0  0  0  0  0999 V2000
   22.5953   15.9656    8.1344 C   0  0  0  0  0  0  0  0  0  0  0  0
   22.5536   16.5628    6.8898 C   0  0  0  0  0  0  0  0  0  0  0  0
   23.2453   15.7722    6.0094 N   0  0  0  0  0  0  0  0  0  0  0  0
   23.7301   14.6589    6.6542 C   0  0  0  0  0  0  0  0  0  0  0  0
   24.4785   13.5871    6.1540 C   0  0  0  0  0  0  0  0  0  0  0  0
   24.8529   12.5836    7.0510 C   0  0  0  0  0  0  0  0  0  0  0  0
   24.4950   12.6534    8.3945 C   0  0  0  0  0  0  0  0  0  0  0  0
   23.7460   13.7324    8.8789 C   0  0  0  0  0  0  0  0  0  0  0  0
   23.3505   14.7563    7.9926 C   0  0  0  0  0  0  0  0  0  0  0  0
   23.3887   15.9714    5.0277 H   0  0  0  0  0  0  0  0  0  0  0  0
   21.9649   16.4805    9.3850 C   0  0  0  0  0  0  0  0  0  0  0  0
   21.2374   17.8050    9.1340 C   0  0  0  0  0  0  0  0  0  0  0  0
   19.2154   18.8689   10.2209 C   0  0  0  0  0  0  0  0  0  0  0  0
   19.7497   17.7010    9.4376 N   0  0  0  0  0  0  0  0  0  0  0  0
   19.4312   16.3988   10.1259 C   0  0  0  0  0  0  0  0  0  0  0  0
   19.2527   17.6809    8.5368 H   0  0  0  0  0  0  0  0  0  0  0  0
 13 14  1  0
 14 15  1  0
 14 12  1  0
 12 11  1  0
 11  1  1  0
  1  2  2  0
  2  3  1  0
  3  4  1  0
  4  5  2  0
  5  6  1  0
  6  7  2  0
  7  8  1  0
  8  9  2  0
  9  1  1  0
  9  4  1  0
 14 16  1  0
  3 10  1  0
M  CHG 1  14   1
M  END
> <minimizedAffinity>
-6.60616

> <CNNscore>
0.8753597736

> <CNNaffinity>
5.1758980751

> <CNN_VS>
4.5307731628

> <CNNaffinity_variance>
0.1328059286

$$$$
DMT_like


 16 17  0  0  0  0  0  0  0  0999 V2000
   22.3521   15.8468    8.6657 C   0  0  0  0  0  0  0  0  0  0  0  0
   22.5965   15.2473    9.8856 C   0  0  0  0  0  0  0  0  0  0  0  0
   23.4115   14.1650    9.6779 N   0  0  0  0  0  0  0  0  0  0  0  0
   23.7160   14.0520    8.3420 C   0  0  0  0  0  0  0  0  0  0  0  0
   24.5141   13.1118    7.6800 C   0  0  0  0  0  0  0  0  0  0  0  0
   24.6400   13.2300    6.2937 C   0  0  0  0  0  0  0  0  0  0  0  0
   23.9898   14.2462    5.5991 C   0  0  0  0  0  0  0  0  0  0  0  0
   23.1951   15.1789    6.2763 C   0  0  0  0  0  0  0  0  0  0  0  0
   23.0559   15.0851    7.6771 C   0  0  0  0  0  0  0  0  0  0  0  0
   23.7427   13.5322   10.3947 H   0  0  0  0  0  0  0  0  0  0  0  0
   21.5198   17.0622    8.4274 C   0  0  0  0  0  0  0  0  0  0  0  0
   22.0467   17.8699    7.2372 C   0  0  0  0  0  0  0  0  0  0  0  0
   22.3427   20.3198    6.6786 C   0  0  0  0  0  0  0  0  0  0  0  0
   21.4033   19.2468    7.1573 N   0  0  0  0  0  0  0  0  0  0  0  0
   20.7784   19.6256    8.4753 C   0  0  0  0  0  0  0  0  0  0  0  0
   20.6322   19.1870    6.4784 H   0  0  0  0  0  0  0  0  0  0  0  0
 13 14  1  0
 14 15  1  0
 14 12  1  0
 12 11  1  0
 11  1  1  0
  1  2  2  0
  2  3  1  0
  3  4  1  0
  4  5  2  0
  5  6  1  0
  6  7  2  0
  7  8  1  0
  8  9  2  0
  9  1  1  0
  9  4  1  0
 14 16  1  0
  3 10  1  0
M  CHG 1  14   1
M  END
> <minimizedAffinity>
-6.44941

> <CNNscore>
0.8424410820

> <CNNaffinity>
5.7762694359

> <CNN_VS>
4.8661665916

> <CNNaffinity_variance>
0.0723624155

$$$$
DMT_like


 16 17  0  0  0  0  0  0  0  0999 V2000
   22.3648   16.0140    8.5645 C   0  0  0  0  0  0  0  0  0  0  0  0
   22.2843   15.5552    9.8647 C   0  0  0  0  0  0  0  0  0  0  0  0
   22.9752   14.3744    9.9482 N   0  0  0  0  0  0  0  0  0  0  0  0
   23.5185   14.0572    8.7257 C   0  0  0  0  0  0  0  0  0  0  0  0
   24.3009   12.9593    8.3493 C   0  0  0  0  0  0  0  0  0  0  0  0
   24.7108   12.8825    7.0159 C   0  0  0  0  0  0  0  0  0  0  0  0
   24.3485   13.8635    6.0972 C   0  0  0  0  0  0  0  0  0  0  0  0
   23.5655   14.9556    6.4900 C   0  0  0  0  0  0  0  0  0  0  0  0
   23.1430   15.0598    7.8320 C   0  0  0  0  0  0  0  0  0  0  0  0
   23.0735   13.8082   10.7812 H   0  0  0  0  0  0  0  0  0  0  0  0
   21.7620   17.2700    8.0300 C   0  0  0  0  0  0  0  0  0  0  0  0
   21.3773   18.2259    9.1635 C   0  0  0  0  0  0  0  0  0  0  0  0
   19.5809   19.9902    9.4135 C   0  0  0  0  0  0  0  0  0  0  0  0
   19.8880   18.5395    9.1596 N   0  0  0  0  0  0  0  0  0  0  0  0
   19.1495   17.6539   10.1297 C   0  0  0  0  0  0  0  0  0  0  0  0
   19.5274   18.3073    8.2241 H   0  0  0  0  0  0  0  0  0  0  0  0
 13 14  1  0
 14 15  1  0
 14 12  1  0
 12 11  1  0
 11  1  1  0
  1  2  2  0
  2  3  1  0
  3  4  1  0
  4  5  2  0
  5  6  1  0
  6  7  2  0
  7  8  1  0
  8  9  2  0
  9  1  1  0
  9  4  1  0
 14 16  1  0
  3 10  1  0
M  CHG 1  14   1
M  END
> <minimizedAffinity>
-6.46141

> <CNNscore>
0.8396020532

> <CNNaffinity>
5.4364256859

> <CNN_VS>
4.5644340515

> <CNNaffinity_variance>
0.0183142796

$$$$
DMT_like


 16 17  0  0  0  0  0  0  0  0999 V2000
   22.2716   16.2321    8.6735 C   0  0  0  0  0  0  0  0  0  0  0  0
   22.6919   15.5570    9.8026 C   0  0  0  0  0  0  0  0  0  0  0  0
   23.4843   14.5104    9.4086 N   0  0  0  0  0  0  0  0  0  0  0  0
   23.6008   14.4953    8.0388 C   0  0  0  0  0  0  0  0  0  0  0  0
   24.3113   13.6208    7.2084 C   0  0  0  0  0  0  0  0  0  0  0  0
   24.2408   13.8355    5.8298 C   0  0  0  0  0  0  0  0  0  0  0  0
   23.4866   14.8813    5.3050 C   0  0  0  0  0  0  0  0  0  0  0  0
   22.7817   15.7473    6.1495 C   0  0  0  0  0  0  0  0  0  0  0  0
   22.8407   15.5556    7.5460 C   0  0  0  0  0  0  0  0  0  0  0  0
   23.9208   13.8382   10.0265 H   0  0  0  0  0  0  0  0  0  0  0  0
   21.3980   17.4413    8.6387 C   0  0  0  0  0  0  0  0  0  0  0  0
   20.2550   17.3283    9.6522 C   0  0  0  0  0  0  0  0  0  0  0  0
   18.2950   18.7111   10.4575 C   0  0  0  0  0  0  0  0  0  0  0  0
   19.7558   18.6951   10.0984 N   0  0  0  0  0  0  0  0  0  0  0  0
   20.0687   19.7456    9.0643 C   0  0  0  0  0  0  0  0  0  0  0  0
   20.2835   18.9545   10.9429 H   0  0  0  0  0  0  0  0  0  0  0  0
 13 14  1  0
 14 15  1  0
 14 12  1  0
 12 11  1  0
 11  1  1  0
  1  2  2  0
  2  3  1  0
  3  4  1  0
  4  5  2  0
  5  6  1  0
  6  7  2  0
  7  8  1  0
  8  9  2  0
  9  1  1  0
  9  4  1  0
 14 16  1  0
  3 10  1  0
M  CHG 1  14   1
M  END
> <minimizedAffinity>
-6.19494

> <CNNscore>
0.8306887150

> <CNNaffinity>
5.2018418312

> <CNN_VS>
4.3211112022

> <CNNaffinity_variance>
0.0039316420

$$$$
DMT_like


 16 17  0  0  0  0  0  0  0  0999 V2000
   23.5160   16.1048    5.7268 C   0  0  0  0  0  0  0  0  0  0  0  0
   23.6793   15.2393    4.6629 C   0  0  0  0  0  0  0  0  0  0  0  0
   23.9142   13.9842    5.1611 N   0  0  0  0  0  0  0  0  0  0  0  0
   23.8952   14.0099    6.5355 C   0  0  0  0  0  0  0  0  0  0  0  0
   24.0766   12.9703    7.4550 C   0  0  0  0  0  0  0  0  0  0  0  0
   24.0184   13.2895    8.8138 C   0  0  0  0  0  0  0  0  0  0  0  0
   23.7915   14.5972    9.2337 C   0  0  0  0  0  0  0  0  0  0  0  0
   23.6120   15.6257    8.3011 C   0  0  0  0  0  0  0  0  0  0  0  0
   23.6606   15.3291    6.9226 C   0  0  0  0  0  0  0  0  0  0  0  0
   24.0829   13.1539    4.6076 H   0  0  0  0  0  0  0  0  0  0  0  0
   23.2338   17.5676    5.6427 C   0  0  0  0  0  0  0  0  0  0  0  0
   21.9330   17.9235    6.3692 C   0  0  0  0  0  0  0  0  0  0  0  0
   21.0382   19.0860    8.4307 C   0  0  0  0  0  0  0  0  0  0  0  0
   22.1471   19.0061    7.4173 N   0  0  0  0  0  0  0  0  0  0  0  0
   22.3813   20.3452    6.7671 C   0  0  0  0  0  0  0  0  0  0  0  0
   23.0123   18.7759    7.9248 H   0  0  0  0  0  0  0  0  0  0  0  0
 13 14  1  0
 14 15  1  0
 14 12  1  0
 12 11  1  0
 11  1  1  0
  1  2  2  0
  2  3  1  0
  3  4  1  0
  4  5  2  0
  5  6  1  0
  6  7  2  0
  7  8  1  0
  8  9  2  0
  9  1  1  0
  9  4  1  0
 14 16  1  0
  3 10  1  0
M  CHG 1  14   1
M  END
> <minimizedAffinity>
-5.91243

> <CNNscore>
0.8219214082

> <CNNaffinity>
5.3208498955

> <CNN_VS>
4.3733205795

> <CNNaffinity_variance>
0.0871324167

$$$$
DMT_like


 16 17  0  0  0  0  0  0  0  0999 V2000
   22.5575   15.8149    8.5258 C   0  0  0  0  0  0  0  0  0  0  0  0
   22.5025   15.3765    9.8343 C   0  0  0  0  0  0  0  0  0  0  0  0
   23.1841   14.1904    9.9200 N   0  0  0  0  0  0  0  0  0  0  0  0
   23.6962   13.8496    8.6905 C   0  0  0  0  0  0  0  0  0  0  0  0
   24.4594   12.7386    8.3131 C   0  0  0  0  0  0  0  0  0  0  0  0
   24.8378   12.6377    6.9721 C   0  0  0  0  0  0  0  0  0  0  0  0
   24.4637   13.6083    6.0469 C   0  0  0  0  0  0  0  0  0  0  0  0
   23.7002   14.7137    6.4408 C   0  0  0  0  0  0  0  0  0  0  0  0
   23.3096   14.8422    7.7904 C   0  0  0  0  0  0  0  0  0  0  0  0
   23.2962   13.6359   10.7591 H   0  0  0  0  0  0  0  0  0  0  0  0
   21.9544   17.0685    7.9860 C   0  0  0  0  0  0  0  0  0  0  0  0
   21.1196   17.7852    9.0518 C   0  0  0  0  0  0  0  0  0  0  0  0
   19.8317   19.9554    9.2354 C   0  0  0  0  0  0  0  0  0  0  0  0
   21.1300   19.2949    8.8594 N   0  0  0  0  0  0  0  0  0  0  0  0
   21.5305   19.6548    7.4519 C   0  0  0  0  0  0  0  0  0  0  0  0
   21.8603   19.6783    9.4747 H   0  0  0  0  0  0  0  0  0  0  0  0
 13 14  1  0
 14 15  1  0
 14 12  1  0
 12 11  1  0
 11  1  1  0
  1  2  2  0
  2  3  1  0
  3  4  1  0
  4  5  2  0
  5  6  1  0
  6  7  2  0
  7  8  1  0
  8  9  2  0
  9  1  1  0
  9  4  1  0
 14 16  1  0
  3 10  1  0
M  CHG 1  14   1
M  END
> <minimizedAffinity>
-6.53830

> <CNNscore>
0.7830966711

> <CNNaffinity>
5.4834647179

> <CNN_VS>
4.2940831184

> <CNNaffinity_variance>
0.0209011659

$$$$
DMT_like


 16 17  0  0  0  0  0  0  0  0999 V2000
   26.2163   28.2310   -6.8589 C   0  0  0  0  0  0  0  0  0  0  0  0
   26.8506   28.7503   -7.9703 C   0  0  0  0  0  0  0  0  0  0  0  0
   27.3286   27.7072   -8.7200 N   0  0  0  0  0  0  0  0  0  0  0  0
   27.0071   26.5106   -8.1242 C   0  0  0  0  0  0  0  0  0  0  0  0
   27.2815   25.2012   -8.5356 C   0  0  0  0  0  0  0  0  0  0  0  0
   26.8412   24.1588   -7.7163 C   0  0  0  0  0  0  0  0  0  0  0  0
   26.1574   24.4182   -6.5318 C   0  0  0  0  0  0  0  0  0  0  0  0
   25.8907   25.7340   -6.1346 C   0  0  0  0  0  0  0  0  0  0  0  0
   26.3198   26.8047   -6.9469 C   0  0  0  0  0  0  0  0  0  0  0  0
   27.8476   27.7936   -9.5845 H   0  0  0  0  0  0  0  0  0  0  0  0
   25.5443   29.0102   -5.7782 C   0  0  0  0  0  0  0  0  0  0  0  0
   25.1042   30.3887   -6.2809 C   0  0  0  0  0  0  0  0  0  0  0  0
   23.2642   30.3890   -8.0177 C   0  0  0  0  0  0  0  0  0  0  0  0
   23.6079   30.4413   -6.5540 N   0  0  0  0  0  0  0  0  0  0  0  0
   22.9831   31.6443   -5.8958 C   0  0  0  0  0  0  0  0  0  0  0  0
   23.1848   29.6157   -6.1084 H   0  0  0  0  0  0  0  0  0  0  0  0
 13 14  1  0
 14 15  1  0
 14 12  1  0
 12 11  1  0
 11  1  1  0
  1  2  2  0
  2  3  1  0
  3  4  1  0
  4  5  2  0
  5  6  1  0
  6  7  2  0
  7  8  1  0
  8  9  2  0
  9  1  1  0
  9  4  1  0
 14 16  1  0
  3 10  1  0
M  CHG 1  14   1
M  END
> <minimizedAffinity>
-4.64776

> <CNNscore>
0.7594202161

> <CNNaffinity>
4.4968051910

> <CNN_VS>
3.4149646759

> <CNNaffinity_variance>
0.3798533678

$$$$
DMT_like


 16 17  0  0  0  0  0  0  0  0999 V2000
   22.6128   15.6391    9.1762 C   0  0  0  0  0  0  0  0  0  0  0  0
   23.0897   14.4300    9.6432 C   0  0  0  0  0  0  0  0  0  0  0  0
   23.6217   13.7395    8.5856 N   0  0  0  0  0  0  0  0  0  0  0  0
   23.5126   14.4818    7.4335 C   0  0  0  0  0  0  0  0  0  0  0  0
   23.9238   14.1807    6.1298 C   0  0  0  0  0  0  0  0  0  0  0  0
   23.6699   15.1283    5.1352 C   0  0  0  0  0  0  0  0  0  0  0  0
   23.0273   16.3265    5.4341 C   0  0  0  0  0  0  0  0  0  0  0  0
   22.6225   16.6124    6.7435 C   0  0  0  0  0  0  0  0  0  0  0  0
   22.8719   15.6746    7.7676 C   0  0  0  0  0  0  0  0  0  0  0  0
   24.0328   12.8160    8.6332 H   0  0  0  0  0  0  0  0  0  0  0  0
   21.9602   16.7069    9.9889 C   0  0  0  0  0  0  0  0  0  0  0  0
   20.4454   16.7283    9.7618 C   0  0  0  0  0  0  0  0  0  0  0  0
   21.0682   19.0831    9.0773 C   0  0  0  0  0  0  0  0  0  0  0  0
   19.9551   18.1054    9.3386 N   0  0  0  0  0  0  0  0  0  0  0  0
   18.9752   18.6588   10.3408 C   0  0  0  0  0  0  0  0  0  0  0  0
   19.4341   17.9893    8.4587 H   0  0  0  0  0  0  0  0  0  0  0  0
 13 14  1  0
 14 15  1  0
 14 12  1  0
 12 11  1  0
 11  1  1  0
  1  2  2  0
  2  3  1  0
  3  4  1  0
  4  5  2  0
  5  6  1  0
  6  7  2  0
  7  8  1  0
  8  9  2  0
  9  1  1  0
  9  4  1  0
 14 16  1  0
  3 10  1  0
M  CHG 1  14   1
M  END
> <minimizedAffinity>
-6.20002

> <CNNscore>
0.7482211590

> <CNNaffinity>
5.0104403496

> <CNN_VS>
3.7489175797

> <CNNaffinity_variance>
0.0645330474

$$$$
DMT_like


 16 17  0  0  0  0  0  0  0  0999 V2000
   22.8948   15.3399    9.1157 C   0  0  0  0  0  0  0  0  0  0  0  0
   23.3874   14.1024    9.4811 C   0  0  0  0  0  0  0  0  0  0  0  0
   23.8566   13.4763    8.3557 N   0  0  0  0  0  0  0  0  0  0  0  0
   23.6910   14.2887    7.2590 C   0  0  0  0  0  0  0  0  0  0  0  0
   24.0290   14.0670    5.9189 C   0  0  0  0  0  0  0  0  0  0  0  0
   23.7288   15.0751    4.9996 C   0  0  0  0  0  0  0  0  0  0  0  0
   23.1120   16.2551    5.4059 C   0  0  0  0  0  0  0  0  0  0  0  0
   22.7804   16.4613    6.7503 C   0  0  0  0  0  0  0  0  0  0  0  0
   23.0778   15.4611    7.6999 C   0  0  0  0  0  0  0  0  0  0  0  0
   24.2629   12.5501    8.3242 H   0  0  0  0  0  0  0  0  0  0  0  0
   22.2947   16.3580   10.0266 C   0  0  0  0  0  0  0  0  0  0  0  0
   20.8296   16.6264    9.6691 C   0  0  0  0  0  0  0  0  0  0  0  0
   18.9462   18.1863   10.3181 C   0  0  0  0  0  0  0  0  0  0  0  0
   20.4132   18.0489   10.0146 N   0  0  0  0  0  0  0  0  0  0  0  0
   20.8324   19.0098    8.9321 C   0  0  0  0  0  0  0  0  0  0  0  0
   20.9300   18.3235   10.8610 H   0  0  0  0  0  0  0  0  0  0  0  0
 13 14  1  0
 14 15  1  0
 14 12  1  0
 12 11  1  0
 11  1  1  0
  1  2  2  0
  2  3  1  0
  3  4  1  0
  4  5  2  0
  5  6  1  0
  6  7  2  0
  7  8  1  0
  8  9  2  0
  9  1  1  0
  9  4  1  0
 14 16  1  0
  3 10  1  0
M  CHG 1  14   1
M  END
> <minimizedAffinity>
-6.06684

> <CNNscore>
0.7437413335

> <CNNaffinity>
5.0009303093

> <CNN_VS>
3.7193984985

> <CNNaffinity_variance>
0.1046572626

$$$$
DMT_like


 16 17  0  0  0  0  0  0  0  0999 V2000
   27.8083   27.5870   -8.5842 C   0  0  0  0  0  0  0  0  0  0  0  0
   28.5393   26.8366   -9.4842 C   0  0  0  0  0  0  0  0  0  0  0  0
   28.3429   25.5105   -9.1988 N   0  0  0  0  0  0  0  0  0  0  0  0
   27.4844   25.3785   -8.1330 C   0  0  0  0  0  0  0  0  0  0  0  0
   26.9998   24.2231   -7.5091 C   0  0  0  0  0  0  0  0  0  0  0  0
   26.1376   24.3867   -6.4221 C   0  0  0  0  0  0  0  0  0  0  0  0
   25.7789   25.6559   -5.9766 C   0  0  0  0  0  0  0  0  0  0  0  0
   26.2725   26.8017   -6.6119 C   0  0  0  0  0  0  0  0  0  0  0  0
   27.1405   26.6640   -7.7155 C   0  0  0  0  0  0  0  0  0  0  0  0
   28.7664   24.7341   -9.6907 H   0  0  0  0  0  0  0  0  0  0  0  0
   27.7253   29.0761   -8.5347 C   0  0  0  0  0  0  0  0  0  0  0  0
   26.5342   29.5919   -9.3483 C   0  0  0  0  0  0  0  0  0  0  0  0
   28.0904   30.7373  -10.9819 C   0  0  0  0  0  0  0  0  0  0  0  0
   26.9036   29.8298  -10.8055 N   0  0  0  0  0  0  0  0  0  0  0  0
   25.7173   30.3353  -11.5852 C   0  0  0  0  0  0  0  0  0  0  0  0
   27.1500   28.9175  -11.2130 H   0  0  0  0  0  0  0  0  0  0  0  0
 13 14  1  0
 14 15  1  0
 14 12  1  0
 12 11  1  0
 11  1  1  0
  1  2  2  0
  2  3  1  0
  3  4  1  0
  4  5  2  0
  5  6  1  0
  6  7  2  0
  7  8  1  0
  8  9  2  0
  9  1  1  0
  9  4  1  0
 14 16  1  0
  3 10  1  0
M  CHG 1  14   1
M  END
> <minimizedAffinity>
-4.66367

> <CNNscore>
0.7159447074

> <CNNaffinity>
4.5493369102

> <CNN_VS>
3.2570736408

> <CNNaffinity_variance>
0.3119915426

$$$$
DMT_like


 16 17  0  0  0  0  0  0  0  0999 V2000
   22.1169   17.2348    7.8387 C   0  0  0  0  0  0  0  0  0  0  0  0
   22.1299   17.8339    6.5944 C   0  0  0  0  0  0  0  0  0  0  0  0
   22.8009   17.0113    5.7274 N   0  0  0  0  0  0  0  0  0  0  0  0
   23.2179   15.8756    6.3805 C   0  0  0  0  0  0  0  0  0  0  0  0
   23.9240   14.7692    5.8943 C   0  0  0  0  0  0  0  0  0  0  0  0
   24.2308   13.7484    6.7974 C   0  0  0  0  0  0  0  0  0  0  0  0
   23.8489   13.8347    8.1333 C   0  0  0  0  0  0  0  0  0  0  0  0
   23.1428   14.9483    8.6037 C   0  0  0  0  0  0  0  0  0  0  0  0
   22.8157   15.9906    7.7109 C   0  0  0  0  0  0  0  0  0  0  0  0
   22.9741   17.2038    4.7492 H   0  0  0  0  0  0  0  0  0  0  0  0
   21.4862   17.7789    9.0767 C   0  0  0  0  0  0  0  0  0  0  0  0
   20.8799   19.1634    8.8272 C   0  0  0  0  0  0  0  0  0  0  0  0
   19.0035   20.5406    9.8191 C   0  0  0  0  0  0  0  0  0  0  0  0
   19.4124   19.2199    9.2262 N   0  0  0  0  0  0  0  0  0  0  0  0
   19.0623   18.0821   10.1502 C   0  0  0  0  0  0  0  0  0  0  0  0
   18.8559   19.0801    8.3719 H   0  0  0  0  0  0  0  0  0  0  0  0
 13 14  1  0
 14 15  1  0
 14 12  1  0
 12 11  1  0
 11  1  1  0
  1  2  2  0
  2  3  1  0
  3  4  1  0
  4  5  2  0
  5  6  1  0
  6  7  2  0
  7  8  1  0
  8  9  2  0
  9  1  1  0
  9  4  1  0
 14 16  1  0
  3 10  1  0
M  CHG 1  14   1
M  END
> <minimizedAffinity>
-6.16705

> <CNNscore>
0.6964802146

> <CNNaffinity>
4.9981727600

> <CNN_VS>
3.4811284542

> <CNNaffinity_variance>
0.0956926718

$$$$
DMT_like


 16 17  0  0  0  0  0  0  0  0999 V2000
   27.3756   27.9101   -8.3622 C   0  0  0  0  0  0  0  0  0  0  0  0
   26.8388   28.7320   -7.3907 C   0  0  0  0  0  0  0  0  0  0  0  0
   26.2437   27.9437   -6.4404 N   0  0  0  0  0  0  0  0  0  0  0  0
   26.3922   26.6164   -6.7667 C   0  0  0  0  0  0  0  0  0  0  0  0
   25.9567   25.4717   -6.0891 C   0  0  0  0  0  0  0  0  0  0  0  0
   26.2386   24.2308   -6.6655 C   0  0  0  0  0  0  0  0  0  0  0  0
   26.9255   24.1410   -7.8730 C   0  0  0  0  0  0  0  0  0  0  0  0
   27.3544   25.2958   -8.5382 C   0  0  0  0  0  0  0  0  0  0  0  0
   27.0872   26.5613   -7.9745 C   0  0  0  0  0  0  0  0  0  0  0  0
   25.7590   28.2789   -5.6178 H   0  0  0  0  0  0  0  0  0  0  0  0
   28.1213   28.3471   -9.5785 C   0  0  0  0  0  0  0  0  0  0  0  0
   27.5101   29.6183  -10.1761 C   0  0  0  0  0  0  0  0  0  0  0  0
   26.8558   29.9063  -12.6033 C   0  0  0  0  0  0  0  0  0  0  0  0
   27.9795   29.8556  -11.6043 N   0  0  0  0  0  0  0  0  0  0  0  0
   29.0137   28.8362  -12.0068 C   0  0  0  0  0  0  0  0  0  0  0  0
   28.4515   30.7698  -11.6248 H   0  0  0  0  0  0  0  0  0  0  0  0
 13 14  1  0
 14 15  1  0
 14 12  1  0
 12 11  1  0
 11  1  1  0
  1  2  2  0
  2  3  1  0
  3  4  1  0
  4  5  2  0
  5  6  1  0
  6  7  2  0
  7  8  1  0
  8  9  2  0
  9  1  1  0
  9  4  1  0
 14 16  1  0
  3 10  1  0
M  CHG 1  14   1
M  END
> <minimizedAffinity>
-4.98226

> <CNNscore>
0.6613030434

> <CNNaffinity>
4.7233653069

> <CNN_VS>
3.1235759258

> <CNNaffinity_variance>
0.7432938218

$$$$
DMT_like


 16 17  0  0  0  0  0  0  0  0999 V2000
   27.7715   27.5928   -8.5578 C   0  0  0  0  0  0  0  0  0  0  0  0
   28.5303   26.8807   -9.4659 C   0  0  0  0  0  0  0  0  0  0  0  0
   28.3595   25.5441   -9.2153 N   0  0  0  0  0  0  0  0  0  0  0  0
   27.4907   25.3673   -8.1645 C   0  0  0  0  0  0  0  0  0  0  0  0
   27.0237   24.1868   -7.5752 C   0  0  0  0  0  0  0  0  0  0  0  0
   26.1443   24.3050   -6.4962 C   0  0  0  0  0  0  0  0  0  0  0  0
   25.7520   25.5547   -6.0249 C   0  0  0  0  0  0  0  0  0  0  0  0
   26.2283   26.7262   -6.6257 C   0  0  0  0  0  0  0  0  0  0  0  0
   27.1132   26.6344   -7.7207 C   0  0  0  0  0  0  0  0  0  0  0  0
   28.8063   24.7894   -9.7201 H   0  0  0  0  0  0  0  0  0  0  0  0
   27.6550   29.0780   -8.4733 C   0  0  0  0  0  0  0  0  0  0  0  0
   28.6361   29.6533   -7.4471 C   0  0  0  0  0  0  0  0  0  0  0  0
   26.8871   30.8112   -6.0322 C   0  0  0  0  0  0  0  0  0  0  0  0
   27.9986   29.7983   -6.0728 N   0  0  0  0  0  0  0  0  0  0  0  0
   29.0402   30.0981   -5.0259 C   0  0  0  0  0  0  0  0  0  0  0  0
   27.5932   28.8857   -5.8241 H   0  0  0  0  0  0  0  0  0  0  0  0
 13 14  1  0
 14 15  1  0
 14 12  1  0
 12 11  1  0
 11  1  1  0
  1  2  2  0
  2  3  1  0
  3  4  1  0
  4  5  2  0
  5  6  1  0
  6  7  2  0
  7  8  1  0
  8  9  2  0
  9  1  1  0
  9  4  1  0
 14 16  1  0
  3 10  1  0
M  CHG 1  14   1
M  END
> <minimizedAffinity>
-4.54256

> <CNNscore>
0.6507165432

> <CNNaffinity>
4.7032756805

> <CNN_VS>
3.0604991913

> <CNNaffinity_variance>
0.1113212928

$$$$
DMT_like


 16 17  0  0  0  0  0  0  0  0999 V2000
   27.1561   28.2944   -8.4136 C   0  0  0  0  0  0  0  0  0  0  0  0
   26.5391   29.1649   -7.5369 C   0  0  0  0  0  0  0  0  0  0  0  0
   26.0003   28.4329   -6.5110 N   0  0  0  0  0  0  0  0  0  0  0  0
   26.2646   27.0963   -6.6943 C   0  0  0  0  0  0  0  0  0  0  0  0
   25.9185   25.9962   -5.9012 C   0  0  0  0  0  0  0  0  0  0  0  0
   26.3118   24.7302   -6.3420 C   0  0  0  0  0  0  0  0  0  0  0  0
   27.0195   24.5730   -7.5303 C   0  0  0  0  0  0  0  0  0  0  0  0
   27.3581   25.6839   -8.3122 C   0  0  0  0  0  0  0  0  0  0  0  0
   26.9776   26.9741   -7.8867 C   0  0  0  0  0  0  0  0  0  0  0  0
   25.4782   28.8101   -5.7304 H   0  0  0  0  0  0  0  0  0  0  0  0
   27.8782   28.6632   -9.6663 C   0  0  0  0  0  0  0  0  0  0  0  0
   27.7157   30.1536   -9.9810 C   0  0  0  0  0  0  0  0  0  0  0  0
   25.3523   30.5782  -10.7785 C   0  0  0  0  0  0  0  0  0  0  0  0
   26.3229   30.6581   -9.6319 N   0  0  0  0  0  0  0  0  0  0  0  0
   26.3821   32.0557   -9.0716 C   0  0  0  0  0  0  0  0  0  0  0  0
   25.9591   30.0596   -8.8780 H   0  0  0  0  0  0  0  0  0  0  0  0
 13 14  1  0
 14 15  1  0
 14 12  1  0
 12 11  1  0
 11  1  1  0
  1  2  2  0
  2  3  1  0
  3  4  1  0
  4  5  2  0
  5  6  1  0
  6  7  2  0
  7  8  1  0
  8  9  2  0
  9  1  1  0
  9  4  1  0
 14 16  1  0
  3 10  1  0
M  CHG 1  14   1
M  END
> <minimizedAffinity>
-4.24771

> <CNNscore>
0.6131544709

> <CNNaffinity>
4.2513489723

> <CNN_VS>
2.6067335606

> <CNNaffinity_variance>
0.1075886860

$$$$
DMT_like


 16 17  0  0  0  0  0  0  0  0999 V2000
   27.3360   27.9471   -8.3395 C   0  0  0  0  0  0  0  0  0  0  0  0
   26.7951   28.7390   -7.3457 C   0  0  0  0  0  0  0  0  0  0  0  0
   26.2062   27.9216   -6.4164 N   0  0  0  0  0  0  0  0  0  0  0  0
   26.3628   26.6046   -6.7785 C   0  0  0  0  0  0  0  0  0  0  0  0
   25.9354   25.4393   -6.1316 C   0  0  0  0  0  0  0  0  0  0  0  0
   26.2246   24.2162   -6.7416 C   0  0  0  0  0  0  0  0  0  0  0  0
   26.9106   24.1634   -7.9518 C   0  0  0  0  0  0  0  0  0  0  0  0
   27.3314   25.3385   -8.5860 C   0  0  0  0  0  0  0  0  0  0  0  0
   27.0568   26.5865   -7.9881 C   0  0  0  0  0  0  0  0  0  0  0  0
   25.7203   28.2314   -5.5846 H   0  0  0  0  0  0  0  0  0  0  0  0
   28.0775   28.4216   -9.5443 C   0  0  0  0  0  0  0  0  0  0  0  0
   27.3261   29.5574  -10.2456 C   0  0  0  0  0  0  0  0  0  0  0  0
   28.7363   31.4030   -9.2420 C   0  0  0  0  0  0  0  0  0  0  0  0
   28.2251   30.7585  -10.5016 N   0  0  0  0  0  0  0  0  0  0  0  0
   27.5356   31.7681  -11.3826 C   0  0  0  0  0  0  0  0  0  0  0  0
   29.0422   30.4239  -11.0301 H   0  0  0  0  0  0  0  0  0  0  0  0
 13 14  1  0
 14 15  1  0
 14 12  1  0
 12 11  1  0
 11  1  1  0
  1  2  2  0
  2  3  1  0
  3  4  1  0
  4  5  2  0
  5  6  1  0
  6  7  2  0
  7  8  1  0
  8  9  2  0
  9  1  1  0
  9  4  1  0
 14 16  1  0
  3 10  1  0
M  CHG 1  14   1
M  END
> <minimizedAffinity>
-4.72039

> <CNNscore>
0.5936026573

> <CNNaffinity>
4.1912765503

> <CNN_VS>
2.4879529476

> <CNNaffinity_variance>
0.1565278172

$$$$
DMT_like


 16 17  0  0  0  0  0  0  0  0999 V2000
   22.6902   15.9427    7.7634 C   0  0  0  0  0  0  0  0  0  0  0  0
   22.2125   17.2197    7.5434 C   0  0  0  0  0  0  0  0  0  0  0  0
   22.4410   17.5449    6.2316 N   0  0  0  0  0  0  0  0  0  0  0  0
   23.0503   16.4964    5.5839 C   0  0  0  0  0  0  0  0  0  0  0  0
   23.4573   16.3806    4.2497 C   0  0  0  0  0  0  0  0  0  0  0  0
   24.0725   15.1881    3.8611 C   0  0  0  0  0  0  0  0  0  0  0  0
   24.2747   14.1558    4.7728 C   0  0  0  0  0  0  0  0  0  0  0  0
   23.8615   14.2874    6.1039 C   0  0  0  0  0  0  0  0  0  0  0  0
   23.2327   15.4796    6.5208 C   0  0  0  0  0  0  0  0  0  0  0  0
   22.2045   18.4265    5.7945 H   0  0  0  0  0  0  0  0  0  0  0  0
   22.6410   15.1885    9.0499 C   0  0  0  0  0  0  0  0  0  0  0  0
   23.4704   13.9030    8.9707 C   0  0  0  0  0  0  0  0  0  0  0  0
   25.6883   15.0880    9.2513 C   0  0  0  0  0  0  0  0  0  0  0  0
   24.7659   14.0146    9.7615 N   0  0  0  0  0  0  0  0  0  0  0  0
   25.4710   12.6845    9.8288 C   0  0  0  0  0  0  0  0  0  0  0  0
   24.5152   14.2582   10.7294 H   0  0  0  0  0  0  0  0  0  0  0  0
 13 14  1  0
 14 15  1  0
 14 12  1  0
 12 11  1  0
 11  1  1  0
  1  2  2  0
  2  3  1  0
  3  4  1  0
  4  5  2  0
  5  6  1  0
  6  7  2  0
  7  8  1  0
  8  9  2  0
  9  1  1  0
  9  4  1  0
 14 16  1  0
  3 10  1  0
M  CHG 1  14   1
M  END
> <minimizedAffinity>
-5.50793

> <CNNscore>
0.5081478357

> <CNNaffinity>
4.9856944084

> <CNN_VS>
2.5334699154

> <CNNaffinity_variance>
0.1588461250

$$$$
DMT_like


 16 17  0  0  0  0  0  0  0  0999 V2000
   22.5105   15.8149    8.6314 C   0  0  0  0  0  0  0  0  0  0  0  0
   21.8304   15.6472    9.8217 C   0  0  0  0  0  0  0  0  0  0  0  0
   22.4628   14.6697   10.5450 N   0  0  0  0  0  0  0  0  0  0  0  0
   23.5549   14.2016    9.8533 C   0  0  0  0  0  0  0  0  0  0  0  0
   24.4875   13.2196   10.2069 C   0  0  0  0  0  0  0  0  0  0  0  0
   25.5032   12.9312    9.2921 C   0  0  0  0  0  0  0  0  0  0  0  0
   25.5790   13.5969    8.0719 C   0  0  0  0  0  0  0  0  0  0  0  0
   24.6381   14.5769    7.7334 C   0  0  0  0  0  0  0  0  0  0  0  0
   23.6055   14.8909    8.6420 C   0  0  0  0  0  0  0  0  0  0  0  0
   22.1741   14.3309   11.4538 H   0  0  0  0  0  0  0  0  0  0  0  0
   22.1716   16.7819    7.5467 C   0  0  0  0  0  0  0  0  0  0  0  0
   21.5449   16.0687    6.3446 C   0  0  0  0  0  0  0  0  0  0  0  0
   23.0176   14.7153    4.7949 C   0  0  0  0  0  0  0  0  0  0  0  0
   22.4704   16.0744    5.1364 N   0  0  0  0  0  0  0  0  0  0  0  0
   23.5832   17.0745    5.3162 C   0  0  0  0  0  0  0  0  0  0  0  0
   21.9198   16.3967    4.3289 H   0  0  0  0  0  0  0  0  0  0  0  0
 13 14  1  0
 14 15  1  0
 14 12  1  0
 12 11  1  0
 11  1  1  0
  1  2  2  0
  2  3  1  0
  3  4  1  0
  4  5  2  0
  5  6  1  0
  6  7  2  0
  7  8  1  0
  8  9  2  0
  9  1  1  0
  9  4  1  0
 14 16  1  0
  3 10  1  0
M  CHG 1  14   1
M  END
> <minimizedAffinity>
-4.29694

> <CNNscore>
0.4403239787

> <CNNaffinity>
4.4587059021

> <CNN_VS>
1.9632750750

> <CNNaffinity_variance>
0.3653529882

$$$$
DMT_like


 15 16  0  0  0  0  0  0  0  0999 V2000
   23.4115   15.8128    5.9611 C   0  0  0  0  0  0  0  0  0  0  0  0
   23.5002   15.0855    4.7900 C   0  0  0  0  0  0  0  0  0  0  0  0
   24.0461   13.8650    5.0813 N   0  0  0  0  0  0  0  0  0  0  0  0
   24.3183   13.7734    6.4260 C   0  0  0  0  0  0  0  0  0  0  0  0
   24.8723   12.7208    7.1646 C   0  0  0  0  0  0  0  0  0  0  0  0
   25.0381   12.9110    8.5396 C   0  0  0  0  0  0  0  0  0  0  0  0
   24.6645   14.1065    9.1484 C   0  0  0  0  0  0  0  0  0  0  0  0
   24.1121   15.1485    8.3945 C   0  0  0  0  0  0  0  0  0  0  0  0
   23.9333   14.9826    7.0055 C   0  0  0  0  0  0  0  0  0  0  0  0
   24.2263   13.1321    4.4097 H   0  0  0  0  0  0  0  0  0  0  0  0
   22.8708   17.2040    6.1052 C   0  0  0  0  0  0  0  0  0  0  0  0
   22.0579   17.3762    7.4007 C   0  0  0  0  0  0  0  0  0  0  0  0
   22.2002   19.7590    6.9069 C   0  0  0  0  0  0  0  0  0  0  0  0
   21.4025   18.6957    7.5210 N   0  0  0  0  0  0  0  0  0  0  0  0
   21.1719   19.0073    8.9346 C   0  0  0  0  0  0  0  0  0  0  0  0
 13 14  1  0
 14 15  1  0
 14 12  1  0
 12 11  1  0
 11  1  1  0
  1  2  2  0
  2  3  1  0
  3  4  1  0
  4  5  2  0
  5  6  1  0
  6  7  2  0
  7  8  1  0
  8  9  2  0
  9  1  1  0
  9  4  1  0
  3 10  1  0
M  END
> <minimizedAffinity>
-6.83573

> <CNNscore>
0.9636844993

> <CNNaffinity>
5.5323276520

> <CNN_VS>
5.3314185143

> <CNNaffinity_variance>
0.0622309335

$$$$
DMT_like


 15 16  0  0  0  0  0  0  0  0999 V2000
   22.8370   15.5667    6.4825 C   0  0  0  0  0  0  0  0  0  0  0  0
   23.1838   15.2060    5.1948 C   0  0  0  0  0  0  0  0  0  0  0  0
   23.9938   14.1049    5.2594 N   0  0  0  0  0  0  0  0  0  0  0  0
   24.1865   13.7313    6.5686 C   0  0  0  0  0  0  0  0  0  0  0  0
   24.9317   12.6740    7.1046 C   0  0  0  0  0  0  0  0  0  0  0  0
   24.9498   12.5337    8.4953 C   0  0  0  0  0  0  0  0  0  0  0  0
   24.2504   13.4166    9.3143 C   0  0  0  0  0  0  0  0  0  0  0  0
   23.5105   14.4682    8.7614 C   0  0  0  0  0  0  0  0  0  0  0  0
   23.4748   14.6322    7.3611 C   0  0  0  0  0  0  0  0  0  0  0  0
   24.3959   13.6300    4.4636 H   0  0  0  0  0  0  0  0  0  0  0  0
   21.9597   16.7167    6.8781 C   0  0  0  0  0  0  0  0  0  0  0  0
   22.3151   18.0038    6.1126 C   0  0  0  0  0  0  0  0  0  0  0  0
   21.4141   19.0006    8.1464 C   0  0  0  0  0  0  0  0  0  0  0  0
   22.1839   19.2333    6.9228 N   0  0  0  0  0  0  0  0  0  0  0  0
   21.5401   20.2836    6.1285 C   0  0  0  0  0  0  0  0  0  0  0  0
 13 14  1  0
 14 15  1  0
 14 12  1  0
 12 11  1  0
 11  1  1  0
  1  2  2  0
  2  3  1  0
  3  4  1  0
  4  5  2  0
  5  6  1  0
  6  7  2  0
  7  8  1  0
  8  9  2  0
  9  1  1  0
  9  4  1  0
  3 10  1  0
M  END
> <minimizedAffinity>
-6.83250

> <CNNscore>
0.9464806914

> <CNNaffinity>
5.6691322327

> <CNN_VS>
5.3657240868

> <CNNaffinity_variance>
0.0247498397

$$$$
DMT_like


 15 16  0  0  0  0  0  0  0  0999 V2000
   22.6002   15.9307    8.2808 C   0  0  0  0  0  0  0  0  0  0  0  0
   22.5014   16.5501    7.0500 C   0  0  0  0  0  0  0  0  0  0  0  0
   23.1615   15.7840    6.1281 N   0  0  0  0  0  0  0  0  0  0  0  0
   23.6935   14.6677    6.7294 C   0  0  0  0  0  0  0  0  0  0  0  0
   24.4386   13.6165    6.1815 C   0  0  0  0  0  0  0  0  0  0  0  0
   24.8564   12.5995    7.0448 C   0  0  0  0  0  0  0  0  0  0  0  0
   24.5408   12.6353    8.4008 C   0  0  0  0  0  0  0  0  0  0  0  0
   23.7950   13.6941    8.9317 C   0  0  0  0  0  0  0  0  0  0  0  0
   23.3603   14.7327    8.0826 C   0  0  0  0  0  0  0  0  0  0  0  0
   23.2493   16.0015    5.1455 H   0  0  0  0  0  0  0  0  0  0  0  0
   22.0199   16.4226    9.5730 C   0  0  0  0  0  0  0  0  0  0  0  0
   20.5586   16.8787    9.4131 C   0  0  0  0  0  0  0  0  0  0  0  0
   18.8835   18.4200   10.2850 C   0  0  0  0  0  0  0  0  0  0  0  0
   20.2958   18.2317    9.9474 N   0  0  0  0  0  0  0  0  0  0  0  0
   20.7059   19.2403    8.9659 C   0  0  0  0  0  0  0  0  0  0  0  0
 13 14  1  0
 14 15  1  0
 14 12  1  0
 12 11  1  0
 11  1  1  0
  1  2  2  0
  2  3  1  0
  3  4  1  0
  4  5  2  0
  5  6  1  0
  6  7  2  0
  7  8  1  0
  8  9  2  0
  9  1  1  0
  9  4  1  0
  3 10  1  0
M  END
> <minimizedAffinity>
-6.49865

> <CNNscore>
0.8902398944

> <CNNaffinity>
5.1452727318

> <CNN_VS>
4.5805268288

> <CNNaffinity_variance>
0.0590246581

$$$$
DMT_like


 15 16  0  0  0  0  0  0  0  0999 V2000
   22.1578   16.6767    8.1985 C   0  0  0  0  0  0  0  0  0  0  0  0
   22.0407   17.0380    6.8703 C   0  0  0  0  0  0  0  0  0  0  0  0
   22.7067   16.1138    6.1122 N   0  0  0  0  0  0  0  0  0  0  0  0
   23.2609   15.1469    6.9177 C   0  0  0  0  0  0  0  0  0  0  0  0
   24.0191   14.0188    6.5818 C   0  0  0  0  0  0  0  0  0  0  0  0
   24.4592   13.1996    7.6256 C   0  0  0  0  0  0  0  0  0  0  0  0
   24.1524   13.4993    8.9505 C   0  0  0  0  0  0  0  0  0  0  0  0
   23.3931   14.6314    9.2683 C   0  0  0  0  0  0  0  0  0  0  0  0
   22.9359   15.4744    8.2343 C   0  0  0  0  0  0  0  0  0  0  0  0
   22.7844   16.1332    5.1051 H   0  0  0  0  0  0  0  0  0  0  0  0
   21.5785   17.4069    9.3731 C   0  0  0  0  0  0  0  0  0  0  0  0
   21.0388   18.7941    8.9816 C   0  0  0  0  0  0  0  0  0  0  0  0
   19.6965   20.1706   10.4800 C   0  0  0  0  0  0  0  0  0  0  0  0
   19.6863   19.0763    9.5071 N   0  0  0  0  0  0  0  0  0  0  0  0
   19.1349   17.8693   10.1299 C   0  0  0  0  0  0  0  0  0  0  0  0
 13 14  1  0
 14 15  1  0
 14 12  1  0
 12 11  1  0
 11  1  1  0
  1  2  2  0
  2  3  1  0
  3  4  1  0
  4  5  2  0
  5  6  1  0
  6  7  2  0
  7  8  1  0
  8  9  2  0
  9  1  1  0
  9  4  1  0
  3 10  1  0
M  END
> <minimizedAffinity>
-5.91483

> <CNNscore>
0.8542330861

> <CNNaffinity>
5.3236184120

> <CNN_VS>
4.5476107597

> <CNNaffinity_variance>
0.0117751146

$$$$
DMT_like


 15 16  0  0  0  0  0  0  0  0999 V2000
   22.2538   15.8972    8.6549 C   0  0  0  0  0  0  0  0  0  0  0  0
   22.4821   15.3874    9.9184 C   0  0  0  0  0  0  0  0  0  0  0  0
   23.3312   14.3203    9.8052 N   0  0  0  0  0  0  0  0  0  0  0  0
   23.6688   14.1176    8.4878 C   0  0  0  0  0  0  0  0  0  0  0  0
   24.5029   13.1538    7.9084 C   0  0  0  0  0  0  0  0  0  0  0  0
   24.6636   13.1861    6.5201 C   0  0  0  0  0  0  0  0  0  0  0  0
   24.0147   14.1442    5.7452 C   0  0  0  0  0  0  0  0  0  0  0  0
   23.1842   15.1004    6.3413 C   0  0  0  0  0  0  0  0  0  0  0  0
   23.0054   15.0907    7.7401 C   0  0  0  0  0  0  0  0  0  0  0  0
   23.6657   13.7577   10.5748 H   0  0  0  0  0  0  0  0  0  0  0  0
   21.3852   17.0708    8.3131 C   0  0  0  0  0  0  0  0  0  0  0  0
   22.0653   18.0195    7.3099 C   0  0  0  0  0  0  0  0  0  0  0  0
   20.6773   19.6250    8.5091 C   0  0  0  0  0  0  0  0  0  0  0  0
   21.7633   19.4477    7.5431 N   0  0  0  0  0  0  0  0  0  0  0  0
   21.4049   20.0915    6.2759 C   0  0  0  0  0  0  0  0  0  0  0  0
 13 14  1  0
 14 15  1  0
 14 12  1  0
 12 11  1  0
 11  1  1  0
  1  2  2  0
  2  3  1  0
  3  4  1  0
  4  5  2  0
  5  6  1  0
  6  7  2  0
  7  8  1  0
  8  9  2  0
  9  1  1  0
  9  4  1  0
  3 10  1  0
M  END
> <minimizedAffinity>
-6.11689

> <CNNscore>
0.8414369822

> <CNNaffinity>
5.8053174019

> <CNN_VS>
4.8848085403

> <CNNaffinity_variance>
0.0576535873

$$$$
DMT_like


 15 16  0  0  0  0  0  0  0  0999 V2000
    6.6389   13.6565    4.7481 C   0  0  0  0  0  0  0  0  0  0  0  0
    6.4058   12.5760    5.5767 C   0  0  0  0  0  0  0  0  0  0  0  0
    6.6490   12.9622    6.8667 N   0  0  0  0  0  0  0  0  0  0  0  0
    7.0377   14.2806    6.9043 C   0  0  0  0  0  0  0  0  0  0  0  0
    7.3821   15.0888    7.9945 C   0  0  0  0  0  0  0  0  0  0  0  0
    7.7445   16.4129    7.7305 C   0  0  0  0  0  0  0  0  0  0  0  0
    7.7613   16.9058    6.4282 C   0  0  0  0  0  0  0  0  0  0  0  0
    7.4140   16.0836    5.3499 C   0  0  0  0  0  0  0  0  0  0  0  0
    7.0438   14.7439    5.5883 C   0  0  0  0  0  0  0  0  0  0  0  0
    6.5583   12.3689    7.6794 H   0  0  0  0  0  0  0  0  0  0  0  0
    6.4934   13.6806    3.2559 C   0  0  0  0  0  0  0  0  0  0  0  0
    6.8273   12.3187    2.6213 C   0  0  0  0  0  0  0  0  0  0  0  0
    7.7816   13.2440    0.5780 C   0  0  0  0  0  0  0  0  0  0  0  0
    7.9984   12.3534    1.7199 N   0  0  0  0  0  0  0  0  0  0  0  0
    8.2942   11.0004    1.2397 C   0  0  0  0  0  0  0  0  0  0  0  0
 13 14  1  0
 14 15  1  0
 14 12  1  0
 12 11  1  0
 11  1  1  0
  1  2  2  0
  2  3  1  0
  3  4  1  0
  4  5  2  0
  5  6  1  0
  6  7  2  0
  7  8  1  0
  8  9  2  0
  9  1  1  0
  9  4  1  0
  3 10  1  0
M  END
> <minimizedAffinity>
-3.98058

> <CNNscore>
0.8263223767

> <CNNaffinity>
5.0979523659

> <CNN_VS>
4.2125520706

> <CNNaffinity_variance>
1.0339511633

$$$$
DMT_like


 15 16  0  0  0  0  0  0  0  0999 V2000
   22.2847   16.2473    8.6759 C   0  0  0  0  0  0  0  0  0  0  0  0
   22.6854   15.5608    9.8058 C   0  0  0  0  0  0  0  0  0  0  0  0
   23.4651   14.5062    9.4150 N   0  0  0  0  0  0  0  0  0  0  0  0
   23.5873   14.4856    8.0456 C   0  0  0  0  0  0  0  0  0  0  0  0
   24.2841   13.5994    7.2153 C   0  0  0  0  0  0  0  0  0  0  0  0
   24.2297   13.8244    5.8367 C   0  0  0  0  0  0  0  0  0  0  0  0
   23.5065   14.8929    5.3125 C   0  0  0  0  0  0  0  0  0  0  0  0
   22.8155   15.7692    6.1574 C   0  0  0  0  0  0  0  0  0  0  0  0
   22.8544   15.5654    7.5523 C   0  0  0  0  0  0  0  0  0  0  0  0
   23.8923   13.8353   10.0379 H   0  0  0  0  0  0  0  0  0  0  0  0
   21.4198   17.4717    8.6394 C   0  0  0  0  0  0  0  0  0  0  0  0
   20.2528   17.3841    9.6391 C   0  0  0  0  0  0  0  0  0  0  0  0
   18.3444   18.6779   10.4304 C   0  0  0  0  0  0  0  0  0  0  0  0
   19.7731   18.7005   10.1105 N   0  0  0  0  0  0  0  0  0  0  0  0
   20.0324   19.7177    9.0874 C   0  0  0  0  0  0  0  0  0  0  0  0
 13 14  1  0
 14 15  1  0
 14 12  1  0
 12 11  1  0
 11  1  1  0
  1  2  2  0
  2  3  1  0
  3  4  1  0
  4  5  2  0
  5  6  1  0
  6  7  2  0
  7  8  1  0
  8  9  2  0
  9  1  1  0
  9  4  1  0
  3 10  1  0
M  END
> <minimizedAffinity>
-6.16677

> <CNNscore>
0.8062002659

> <CNNaffinity>
5.1722559929

> <CNN_VS>
4.1698741913

> <CNNaffinity_variance>
0.0359739251

$$$$
DMT_like


 15 16  0  0  0  0  0  0  0  0999 V2000
   26.8850   28.3205   -7.0594 C   0  0  0  0  0  0  0  0  0  0  0  0
   27.6476   28.6668   -8.1580 C   0  0  0  0  0  0  0  0  0  0  0  0
   27.9258   27.5287   -8.8651 N   0  0  0  0  0  0  0  0  0  0  0  0
   27.3583   26.4363   -8.2525 C   0  0  0  0  0  0  0  0  0  0  0  0
   27.3799   25.0848   -8.6176 C   0  0  0  0  0  0  0  0  0  0  0  0
   26.7069   24.1796   -7.7918 C   0  0  0  0  0  0  0  0  0  0  0  0
   26.0407   24.6114   -6.6476 C   0  0  0  0  0  0  0  0  0  0  0  0
   26.0295   25.9665   -6.2975 C   0  0  0  0  0  0  0  0  0  0  0  0
   26.7000   26.9010   -7.1136 C   0  0  0  0  0  0  0  0  0  0  0  0
   28.4696   27.4896   -9.7157 H   0  0  0  0  0  0  0  0  0  0  0  0
   26.3548   29.2561   -6.0143 C   0  0  0  0  0  0  0  0  0  0  0  0
   25.0111   29.8821   -6.4282 C   0  0  0  0  0  0  0  0  0  0  0  0
   22.8153   30.6848   -5.7381 C   0  0  0  0  0  0  0  0  0  0  0  0
   24.0924   30.1219   -5.2952 N   0  0  0  0  0  0  0  0  0  0  0  0
   24.7217   31.0287   -4.3305 C   0  0  0  0  0  0  0  0  0  0  0  0
 13 14  1  0
 14 15  1  0
 14 12  1  0
 12 11  1  0
 11  1  1  0
  1  2  2  0
  2  3  1  0
  3  4  1  0
  4  5  2  0
  5  6  1  0
  6  7  2  0
  7  8  1  0
  8  9  2  0
  9  1  1  0
  9  4  1  0
  3 10  1  0
M  END
> <minimizedAffinity>
-4.60998

> <CNNscore>
0.8030825257

> <CNNaffinity>
4.0031027794

> <CNN_VS>
3.2148218155

> <CNNaffinity_variance>
0.3483651578

$$$$
DMT_like


 15 16  0  0  0  0  0  0  0  0999 V2000
   23.1162   15.2299    9.1138 C   0  0  0  0  0  0  0  0  0  0  0  0
   23.6385   13.9806    9.3874 C   0  0  0  0  0  0  0  0  0  0  0  0
   24.0241   13.4070    8.2063 N   0  0  0  0  0  0  0  0  0  0  0  0
   23.7664   14.2575    7.1571 C   0  0  0  0  0  0  0  0  0  0  0  0
   23.9949   14.0930    5.7855 C   0  0  0  0  0  0  0  0  0  0  0  0
   23.6251   15.1405    4.9368 C   0  0  0  0  0  0  0  0  0  0  0  0
   23.0501   16.3039    5.4420 C   0  0  0  0  0  0  0  0  0  0  0  0
   22.8288   16.4514    6.8162 C   0  0  0  0  0  0  0  0  0  0  0  0
   23.1932   15.4101    7.6948 C   0  0  0  0  0  0  0  0  0  0  0  0
   24.4389   12.4907    8.1118 H   0  0  0  0  0  0  0  0  0  0  0  0
   22.5747   16.2061   10.1151 C   0  0  0  0  0  0  0  0  0  0  0  0
   21.0935   15.9398   10.4382 C   0  0  0  0  0  0  0  0  0  0  0  0
   20.3587   18.0868    9.5482 C   0  0  0  0  0  0  0  0  0  0  0  0
   20.1531   16.6371    9.5357 N   0  0  0  0  0  0  0  0  0  0  0  0
   18.7735   16.3324    9.9264 C   0  0  0  0  0  0  0  0  0  0  0  0
 13 14  1  0
 14 15  1  0
 14 12  1  0
 12 11  1  0
 11  1  1  0
  1  2  2  0
  2  3  1  0
  3  4  1  0
  4  5  2  0
  5  6  1  0
  6  7  2  0
  7  8  1  0
  8  9  2  0
  9  1  1  0
  9  4  1  0
  3 10  1  0
M  END
> <minimizedAffinity>
-6.21569

> <CNNscore>
0.7585123777

> <CNNaffinity>
4.8863234520

> <CNN_VS>
3.7063367367

> <CNNaffinity_variance>
0.1499093175

$$$$
DMT_like


 15 16  0  0  0  0  0  0  0  0999 V2000
   27.7991   27.4897   -8.6089 C   0  0  0  0  0  0  0  0  0  0  0  0
   28.5081   26.6940   -9.4879 C   0  0  0  0  0  0  0  0  0  0  0  0
   28.2831   25.3844   -9.1607 N   0  0  0  0  0  0  0  0  0  0  0  0
   27.4359   25.3018   -8.0808 C   0  0  0  0  0  0  0  0  0  0  0  0
   26.9349   24.1789   -7.4113 C   0  0  0  0  0  0  0  0  0  0  0  0
   26.0800   24.3988   -6.3273 C   0  0  0  0  0  0  0  0  0  0  0  0
   25.7422   25.6903   -5.9309 C   0  0  0  0  0  0  0  0  0  0  0  0
   26.2525   26.8017   -6.6118 C   0  0  0  0  0  0  0  0  0  0  0  0
   27.1165   26.6080   -7.7094 C   0  0  0  0  0  0  0  0  0  0  0  0
   28.6795   24.5880   -9.6394 H   0  0  0  0  0  0  0  0  0  0  0  0
   27.7557   28.9885   -8.6031 C   0  0  0  0  0  0  0  0  0  0  0  0
   26.8056   29.5427   -9.6798 C   0  0  0  0  0  0  0  0  0  0  0  0
   27.2295   29.9780  -12.0404 C   0  0  0  0  0  0  0  0  0  0  0  0
   27.4710   30.4204  -10.6657 N   0  0  0  0  0  0  0  0  0  0  0  0
   28.9132   30.4537  -10.4055 C   0  0  0  0  0  0  0  0  0  0  0  0
 13 14  1  0
 14 15  1  0
 14 12  1  0
 12 11  1  0
 11  1  1  0
  1  2  2  0
  2  3  1  0
  3  4  1  0
  4  5  2  0
  5  6  1  0
  6  7  2  0
  7  8  1  0
  8  9  2  0
  9  1  1  0
  9  4  1  0
  3 10  1  0
M  END
> <minimizedAffinity>
-4.58043

> <CNNscore>
0.7534016967

> <CNNaffinity>
4.2980885506

> <CNN_VS>
3.2381873131

> <CNNaffinity_variance>
0.1982574314

$$$$
DMT_like


 15 16  0  0  0  0  0  0  0  0999 V2000
   24.1378   13.6476    6.3941 C   0  0  0  0  0  0  0  0  0  0  0  0
   24.2759   12.2779    6.2794 C   0  0  0  0  0  0  0  0  0  0  0  0
   24.8366   11.8034    7.4340 N   0  0  0  0  0  0  0  0  0  0  0  0
   25.0699   12.8370    8.3103 C   0  0  0  0  0  0  0  0  0  0  0  0
   25.6219   12.8217    9.5969 C   0  0  0  0  0  0  0  0  0  0  0  0
   25.7425   14.0438   10.2649 C   0  0  0  0  0  0  0  0  0  0  0  0
   25.3275   15.2314    9.6677 C   0  0  0  0  0  0  0  0  0  0  0  0
   24.7777   15.2283    8.3805 C   0  0  0  0  0  0  0  0  0  0  0  0
   24.6441   14.0090    7.6846 C   0  0  0  0  0  0  0  0  0  0  0  0
   25.0512   10.8343    7.6220 H   0  0  0  0  0  0  0  0  0  0  0  0
   23.5660   14.5732    5.3622 C   0  0  0  0  0  0  0  0  0  0  0  0
   22.2037   15.1462    5.7923 C   0  0  0  0  0  0  0  0  0  0  0  0
   23.4545   17.2165    5.4904 C   0  0  0  0  0  0  0  0  0  0  0  0
   22.1974   16.6168    5.9420 N   0  0  0  0  0  0  0  0  0  0  0  0
   21.9590   16.9709    7.3443 C   0  0  0  0  0  0  0  0  0  0  0  0
 13 14  1  0
 14 15  1  0
 14 12  1  0
 12 11  1  0
 11  1  1  0
  1  2  2  0
  2  3  1  0
  3  4  1  0
  4  5  2  0
  5  6  1  0
  6  7  2  0
  7  8  1  0
  8  9  2  0
  9  1  1  0
  9  4  1  0
  3 10  1  0
M  END
> <minimizedAffinity>
-4.91498

> <CNNscore>
0.7520397305

> <CNNaffinity>
4.9120898247

> <CNN_VS>
3.6940867901

> <CNNaffinity_variance>
0.2733749151

$$$$
DMT_like


 15 16  0  0  0  0  0  0  0  0999 V2000
   22.7902   15.4851    9.1029 C   0  0  0  0  0  0  0  0  0  0  0  0
   23.2250   14.2590    9.5677 C   0  0  0  0  0  0  0  0  0  0  0  0
   23.7333   13.5534    8.5111 N   0  0  0  0  0  0  0  0  0  0  0  0
   23.6428   14.2939    7.3560 C   0  0  0  0  0  0  0  0  0  0  0  0
   24.0351   13.9787    6.0494 C   0  0  0  0  0  0  0  0  0  0  0  0
   23.8160   14.9392    5.0576 C   0  0  0  0  0  0  0  0  0  0  0  0
   23.2277   16.1640    5.3629 C   0  0  0  0  0  0  0  0  0  0  0  0
   22.8415   16.4624    6.6747 C   0  0  0  0  0  0  0  0  0  0  0  0
   23.0518   15.5114    7.6947 C   0  0  0  0  0  0  0  0  0  0  0  0
   24.1207   12.6220    8.5649 H   0  0  0  0  0  0  0  0  0  0  0  0
   22.1656   16.5756    9.9209 C   0  0  0  0  0  0  0  0  0  0  0  0
   20.8493   17.0794    9.3025 C   0  0  0  0  0  0  0  0  0  0  0  0
   18.6964   16.1505    9.9688 C   0  0  0  0  0  0  0  0  0  0  0  0
   19.7281   17.1469   10.2634 N   0  0  0  0  0  0  0  0  0  0  0  0
   19.1373   18.4882   10.2419 C   0  0  0  0  0  0  0  0  0  0  0  0
 13 14  1  0
 14 15  1  0
 14 12  1  0
 12 11  1  0
 11  1  1  0
  1  2  2  0
  2  3  1  0
  3  4  1  0
  4  5  2  0
  5  6  1  0
  6  7  2  0
  7  8  1  0
  8  9  2  0
  9  1  1  0
  9  4  1  0
  3 10  1  0
M  END
> <minimizedAffinity>
-6.13099

> <CNNscore>
0.7019484043

> <CNNaffinity>
4.9117712975

> <CNN_VS>
3.4478099346

> <CNNaffinity_variance>
0.1111476347

$$$$
DMT_like


 15 16  0  0  0  0  0  0  0  0999 V2000
    6.7435   13.1876    6.4860 C   0  0  0  0  0  0  0  0  0  0  0  0
    5.7320   12.9169    7.3871 C   0  0  0  0  0  0  0  0  0  0  0  0
    5.5941   13.9962    8.2168 N   0  0  0  0  0  0  0  0  0  0  0  0
    6.4970   14.9763    7.8779 C   0  0  0  0  0  0  0  0  0  0  0  0
    6.7133   16.2384    8.4441 C   0  0  0  0  0  0  0  0  0  0  0  0
    7.7170   17.0356    7.8860 C   0  0  0  0  0  0  0  0  0  0  0  0
    8.4723   16.5860    6.8059 C   0  0  0  0  0  0  0  0  0  0  0  0
    8.2425   15.3211    6.2523 C   0  0  0  0  0  0  0  0  0  0  0  0
    7.2355   14.4969    6.7957 C   0  0  0  0  0  0  0  0  0  0  0  0
    4.9270   14.0690    8.9721 H   0  0  0  0  0  0  0  0  0  0  0  0
    7.2283   12.2809    5.3945 C   0  0  0  0  0  0  0  0  0  0  0  0
    8.1035   11.1381    5.9395 C   0  0  0  0  0  0  0  0  0  0  0  0
    9.4642    9.2504    5.2138 C   0  0  0  0  0  0  0  0  0  0  0  0
    8.2102    9.9821    5.0244 N   0  0  0  0  0  0  0  0  0  0  0  0
    8.1121   10.4394    3.6351 C   0  0  0  0  0  0  0  0  0  0  0  0
 13 14  1  0
 14 15  1  0
 14 12  1  0
 12 11  1  0
 11  1  1  0
  1  2  2  0
  2  3  1  0
  3  4  1  0
  4  5  2  0
  5  6  1  0
  6  7  2  0
  7  8  1  0
  8  9  2  0
  9  1  1  0
  9  4  1  0
  3 10  1  0
M  END
> <minimizedAffinity>
-3.90144

> <CNNscore>
0.6878982782

> <CNNaffinity>
4.7970871925

> <CNN_VS>
3.2999079227

> <CNNaffinity_variance>
0.2137483805

$$$$
DMT_like


 15 16  0  0  0  0  0  0  0  0999 V2000
   27.3690   27.8899   -8.3693 C   0  0  0  0  0  0  0  0  0  0  0  0
   26.8514   28.7075   -7.3834 C   0  0  0  0  0  0  0  0  0  0  0  0
   26.2570   27.9176   -6.4371 N   0  0  0  0  0  0  0  0  0  0  0  0
   26.3747   26.5915   -6.7809 C   0  0  0  0  0  0  0  0  0  0  0  0
   25.9238   25.4441   -6.1173 C   0  0  0  0  0  0  0  0  0  0  0  0
   26.1882   24.2063   -6.7107 C   0  0  0  0  0  0  0  0  0  0  0  0
   26.8754   24.1225   -7.9190 C   0  0  0  0  0  0  0  0  0  0  0  0
   27.3190   25.2801   -8.5689 C   0  0  0  0  0  0  0  0  0  0  0  0
   27.0661   26.5417   -7.9916 C   0  0  0  0  0  0  0  0  0  0  0  0
   25.7960   28.2540   -5.6035 H   0  0  0  0  0  0  0  0  0  0  0  0
   28.1064   28.3347   -9.5969 C   0  0  0  0  0  0  0  0  0  0  0  0
   27.4624   29.5763  -10.2391 C   0  0  0  0  0  0  0  0  0  0  0  0
   26.8641   29.9305  -12.5755 C   0  0  0  0  0  0  0  0  0  0  0  0
   27.9561   29.8649  -11.6022 N   0  0  0  0  0  0  0  0  0  0  0  0
   28.9171   28.8356  -12.0093 C   0  0  0  0  0  0  0  0  0  0  0  0
 13 14  1  0
 14 15  1  0
 14 12  1  0
 12 11  1  0
 11  1  1  0
  1  2  2  0
  2  3  1  0
  3  4  1  0
  4  5  2  0
  5  6  1  0
  6  7  2  0
  7  8  1  0
  8  9  2  0
  9  1  1  0
  9  4  1  0
  3 10  1  0
M  END
> <minimizedAffinity>
-5.00165

> <CNNscore>
0.6811234951

> <CNNaffinity>
4.2201004028

> <CNN_VS>
2.8744094372

> <CNNaffinity_variance>
0.3045892417

$$$$
DMT_like


 15 16  0  0  0  0  0  0  0  0999 V2000
   27.3452   27.9187   -8.3542 C   0  0  0  0  0  0  0  0  0  0  0  0
   26.8222   28.7246   -7.3616 C   0  0  0  0  0  0  0  0  0  0  0  0
   26.2362   27.9229   -6.4201 N   0  0  0  0  0  0  0  0  0  0  0  0
   26.3647   26.6004   -6.7737 C   0  0  0  0  0  0  0  0  0  0  0  0
   25.9246   25.4444   -6.1177 C   0  0  0  0  0  0  0  0  0  0  0  0
   26.1987   24.2132   -6.7204 C   0  0  0  0  0  0  0  0  0  0  0  0
   26.8846   24.1440   -7.9304 C   0  0  0  0  0  0  0  0  0  0  0  0
   27.3173   25.3100   -8.5726 C   0  0  0  0  0  0  0  0  0  0  0  0
   27.0545   26.5652   -7.9858 C   0  0  0  0  0  0  0  0  0  0  0  0
   25.7736   28.2493   -5.5834 H   0  0  0  0  0  0  0  0  0  0  0  0
   28.0769   28.3785   -9.5797 C   0  0  0  0  0  0  0  0  0  0  0  0
   28.3761   29.8878   -9.5411 C   0  0  0  0  0  0  0  0  0  0  0  0
   27.8162   32.0476  -10.5226 C   0  0  0  0  0  0  0  0  0  0  0  0
   27.9541   30.6094  -10.7602 N   0  0  0  0  0  0  0  0  0  0  0  0
   26.6808   30.0659  -11.2419 C   0  0  0  0  0  0  0  0  0  0  0  0
 13 14  1  0
 14 15  1  0
 14 12  1  0
 12 11  1  0
 11  1  1  0
  1  2  2  0
  2  3  1  0
  3  4  1  0
  4  5  2  0
  5  6  1  0
  6  7  2  0
  7  8  1  0
  8  9  2  0
  9  1  1  0
  9  4  1  0
  3 10  1  0
M  END
> <minimizedAffinity>
-4.79408

> <CNNscore>
0.6810379028

> <CNNaffinity>
4.0498852730

> <CNN_VS>
2.7581253052

> <CNNaffinity_variance>
0.2784053385

$$$$
DMT_like


 15 16  0  0  0  0  0  0  0  0999 V2000
   22.7118   16.0530    7.7671 C   0  0  0  0  0  0  0  0  0  0  0  0
   22.1761   17.2946    7.4844 C   0  0  0  0  0  0  0  0  0  0  0  0
   22.3657   17.5525    6.1539 N   0  0  0  0  0  0  0  0  0  0  0  0
   23.0166   16.5010    5.5527 C   0  0  0  0  0  0  0  0  0  0  0  0
   23.4129   16.3281    4.2210 C   0  0  0  0  0  0  0  0  0  0  0  0
   24.0692   15.1392    3.8894 C   0  0  0  0  0  0  0  0  0  0  0  0
   24.3182   14.1648    4.8527 C   0  0  0  0  0  0  0  0  0  0  0  0
   23.9150   14.3543    6.1796 C   0  0  0  0  0  0  0  0  0  0  0  0
   23.2503   15.5444    6.5409 C   0  0  0  0  0  0  0  0  0  0  0  0
   22.0724   18.3927    5.6758 H   0  0  0  0  0  0  0  0  0  0  0  0
   22.7234   15.3729    9.1035 C   0  0  0  0  0  0  0  0  0  0  0  0
   23.4179   14.0006    9.0469 C   0  0  0  0  0  0  0  0  0  0  0  0
   25.6078   15.0289    9.3447 C   0  0  0  0  0  0  0  0  0  0  0  0
   24.7067   13.9557    9.7695 N   0  0  0  0  0  0  0  0  0  0  0  0
   25.3512   12.6572    9.5527 C   0  0  0  0  0  0  0  0  0  0  0  0
 13 14  1  0
 14 15  1  0
 14 12  1  0
 12 11  1  0
 11  1  1  0
  1  2  2  0
  2  3  1  0
  3  4  1  0
  4  5  2  0
  5  6  1  0
  6  7  2  0
  7  8  1  0
  8  9  2  0
  9  1  1  0
  9  4  1  0
  3 10  1  0
M  END
> <minimizedAffinity>
-5.51068

> <CNNscore>
0.6560423970

> <CNNaffinity>
5.0417499542

> <CNN_VS>
3.3076016903

> <CNNaffinity_variance>
0.1686050296

$$$$
DMT_like


 15 16  0  0  0  0  0  0  0  0999 V2000
   27.7916   27.6077   -8.6046 C   0  0  0  0  0  0  0  0  0  0  0  0
   28.5285   26.8483   -9.4927 C   0  0  0  0  0  0  0  0  0  0  0  0
   28.3384   25.5272   -9.1906 N   0  0  0  0  0  0  0  0  0  0  0  0
   27.4869   25.4013   -8.1184 C   0  0  0  0  0  0  0  0  0  0  0  0
   27.0133   24.2528   -7.4726 C   0  0  0  0  0  0  0  0  0  0  0  0
   26.1455   24.4290   -6.3908 C   0  0  0  0  0  0  0  0  0  0  0  0
   25.7688   25.7031   -5.9737 C   0  0  0  0  0  0  0  0  0  0  0  0
   26.2520   26.8406   -6.6310 C   0  0  0  0  0  0  0  0  0  0  0  0
   27.1283   26.6911   -7.7258 C   0  0  0  0  0  0  0  0  0  0  0  0
   28.7602   24.7510   -9.6807 H   0  0  0  0  0  0  0  0  0  0  0  0
   27.7059   29.1044   -8.5723 C   0  0  0  0  0  0  0  0  0  0  0  0
   26.3713   29.6187   -9.1409 C   0  0  0  0  0  0  0  0  0  0  0  0
   26.2872   30.5977   -6.9102 C   0  0  0  0  0  0  0  0  0  0  0  0
   25.6339   30.5067   -8.2175 N   0  0  0  0  0  0  0  0  0  0  0  0
   24.2624   30.0175   -8.0493 C   0  0  0  0  0  0  0  0  0  0  0  0
 13 14  1  0
 14 15  1  0
 14 12  1  0
 12 11  1  0
 11  1  1  0
  1  2  2  0
  2  3  1  0
  3  4  1  0
  4  5  2  0
  5  6  1  0
  6  7  2  0
  7  8  1  0
  8  9  2  0
  9  1  1  0
  9  4  1  0
  3 10  1  0
M  END
> <minimizedAffinity>
-4.58503

> <CNNscore>
0.6196369529

> <CNNaffinity>
3.6877822876

> <CNN_VS>
2.2850861549

> <CNNaffinity_variance>
0.7924329638

$$$$
DMT_like


 15 16  0  0  0  0  0  0  0  0999 V2000
    7.3372   27.7734   -1.2845 C   0  0  0  0  0  0  0  0  0  0  0  0
    6.3502   26.8377   -1.5272 C   0  0  0  0  0  0  0  0  0  0  0  0
    5.8634   26.4035   -0.3242 N   0  0  0  0  0  0  0  0  0  0  0  0
    6.5115   27.0380    0.7092 C   0  0  0  0  0  0  0  0  0  0  0  0
    6.3429   26.9107    2.0933 C   0  0  0  0  0  0  0  0  0  0  0  0
    7.1553   27.6927    2.9197 C   0  0  0  0  0  0  0  0  0  0  0  0
    8.0975   28.5652    2.3809 C   0  0  0  0  0  0  0  0  0  0  0  0
    8.2527   28.6797    0.9945 C   0  0  0  0  0  0  0  0  0  0  0  0
    7.4454   27.9028    0.1381 C   0  0  0  0  0  0  0  0  0  0  0  0
    5.1330   25.7157   -0.2054 H   0  0  0  0  0  0  0  0  0  0  0  0
    8.1376   28.5097   -2.3169 C   0  0  0  0  0  0  0  0  0  0  0  0
    7.3581   28.6892   -3.6318 C   0  0  0  0  0  0  0  0  0  0  0  0
    8.4977   28.5327   -5.7808 C   0  0  0  0  0  0  0  0  0  0  0  0
    7.8107   27.7953   -4.7186 N   0  0  0  0  0  0  0  0  0  0  0  0
    6.6625   27.0781   -5.2806 C   0  0  0  0  0  0  0  0  0  0  0  0
 13 14  1  0
 14 15  1  0
 14 12  1  0
 12 11  1  0
 11  1  1  0
  1  2  2  0
  2  3  1  0
  3  4  1  0
  4  5  2  0
  5  6  1  0
  6  7  2  0
  7  8  1  0
  8  9  2  0
  9  1  1  0
  9  4  1  0
  3 10  1  0
M  END
> <minimizedAffinity>
-3.96152

> <CNNscore>
0.6057251692

> <CNNaffinity>
4.2898106575

> <CNN_VS>
2.5984463692

> <CNNaffinity_variance>
0.5782104135

$$$$
DMT_like


 15 16  0  0  0  0  0  0  0  0999 V2000
    6.5464   28.6946    4.8250 C   0  0  0  0  0  0  0  0  0  0  0  0
    5.6162   29.7157    4.8490 C   0  0  0  0  0  0  0  0  0  0  0  0
    5.5928   30.3060    3.6146 N   0  0  0  0  0  0  0  0  0  0  0  0
    6.4914   29.6907    2.7751 C   0  0  0  0  0  0  0  0  0  0  0  0
    6.8015   29.9555    1.4356 C   0  0  0  0  0  0  0  0  0  0  0  0
    7.7736   29.1572    0.8257 C   0  0  0  0  0  0  0  0  0  0  0  0
    8.4084   28.1367    1.5293 C   0  0  0  0  0  0  0  0  0  0  0  0
    8.0860   27.8860    2.8681 C   0  0  0  0  0  0  0  0  0  0  0  0
    7.1082   28.6761    3.5074 C   0  0  0  0  0  0  0  0  0  0  0  0
    5.0028   31.0826    3.3514 H   0  0  0  0  0  0  0  0  0  0  0  0
    6.8960   27.7833    5.9633 C   0  0  0  0  0  0  0  0  0  0  0  0
    6.1251   26.4528    5.8953 C   0  0  0  0  0  0  0  0  0  0  0  0
    5.3444   27.2878    8.0482 C   0  0  0  0  0  0  0  0  0  0  0  0
    5.3109   26.1748    7.0974 N   0  0  0  0  0  0  0  0  0  0  0  0
    5.7931   24.9545    7.7509 C   0  0  0  0  0  0  0  0  0  0  0  0
 13 14  1  0
 14 15  1  0
 14 12  1  0
 12 11  1  0
 11  1  1  0
  1  2  2  0
  2  3  1  0
  3  4  1  0
  4  5  2  0
  5  6  1  0
  6  7  2  0
  7  8  1  0
  8  9  2  0
  9  1  1  0
  9  4  1  0
  3 10  1  0
M  END
> <minimizedAffinity>
-3.86822

> <CNNscore>
0.5805993080

> <CNNaffinity>
4.0046296120

> <CNN_VS>
2.3250851631

> <CNNaffinity_variance>
0.2035362720

$$$$
DMT_like


 15 16  0  0  0  0  0  0  0  0999 V2000
   22.8707   15.8432    7.1250 C   0  0  0  0  0  0  0  0  0  0  0  0
   22.6182   16.8118    6.1728 C   0  0  0  0  0  0  0  0  0  0  0  0
   21.9482   17.8424    6.7741 N   0  0  0  0  0  0  0  0  0  0  0  0
   21.7552   17.5713    8.1083 C   0  0  0  0  0  0  0  0  0  0  0  0
   21.1268   18.3320    9.1017 C   0  0  0  0  0  0  0  0  0  0  0  0
   21.0754   17.7970   10.3922 C   0  0  0  0  0  0  0  0  0  0  0  0
   21.6304   16.5513   10.6746 C   0  0  0  0  0  0  0  0  0  0  0  0
   22.2549   15.8042    9.6691 C   0  0  0  0  0  0  0  0  0  0  0  0
   22.3212   16.3210    8.3587 C   0  0  0  0  0  0  0  0  0  0  0  0
   21.6369   18.6842    6.3103 H   0  0  0  0  0  0  0  0  0  0  0  0
   23.5846   14.5433    6.9035 C   0  0  0  0  0  0  0  0  0  0  0  0
   24.7217   14.3288    7.9184 C   0  0  0  0  0  0  0  0  0  0  0  0
   25.6165   12.9874    9.7464 C   0  0  0  0  0  0  0  0  0  0  0  0
   24.5835   13.0905    8.7137 N   0  0  0  0  0  0  0  0  0  0  0  0
   24.6534   11.9235    7.8295 C   0  0  0  0  0  0  0  0  0  0  0  0
 13 14  1  0
 14 15  1  0
 14 12  1  0
 12 11  1  0
 11  1  1  0
  1  2  2  0
  2  3  1  0
  3  4  1  0
  4  5  2  0
  5  6  1  0
  6  7  2  0
  7  8  1  0
  8  9  2  0
  9  1  1  0
  9  4  1  0
  3 10  1  0
M  END
> <minimizedAffinity>
-6.08612

> <CNNscore>
0.5764661431

> <CNNaffinity>
4.7904868126

> <CNN_VS>
2.7615535259

> <CNNaffinity_variance>
0.2438590676

$$$$
Tryptamine_like


 16 17  0  0  0  0  0  0  0  0999 V2000
   23.4526   15.7546    6.0213 C   0  0  0  0  0  0  0  0  0  0  0  0
   23.4693   15.0184    4.8529 C   0  0  0  0  0  0  0  0  0  0  0  0
   23.9634   13.7716    5.1365 N   0  0  0  0  0  0  0  0  0  0  0  0
   24.2839   13.6827    6.4704 C   0  0  0  0  0  0  0  0  0  0  0  0
   24.8218   12.6123    7.1941 C   0  0  0  0  0  0  0  0  0  0  0  0
   25.0363   12.7974    8.5620 C   0  0  0  0  0  0  0  0  0  0  0  0
   24.7209   14.0044    9.1798 C   0  0  0  0  0  0  0  0  0  0  0  0
   24.1835   15.0657    8.4415 C   0  0  0  0  0  0  0  0  0  0  0  0
   23.9626   14.9065    7.0572 C   0  0  0  0  0  0  0  0  0  0  0  0
   24.0760   13.0177    4.4706 H   0  0  0  0  0  0  0  0  0  0  0  0
   22.9997   17.1661    6.1691 C   0  0  0  0  0  0  0  0  0  0  0  0
   21.5667   18.7241    7.4487 N   0  0  0  0  0  0  0  0  0  0  0  0
   21.9440   17.2969    7.2647 C   0  0  0  0  0  0  0  0  0  0  0  0
   20.8546   18.8189    8.1852 H   0  0  0  0  0  0  0  0  0  0  0  0
   21.1732   19.1283    6.5885 H   0  0  0  0  0  0  0  0  0  0  0  0
   22.3737   19.2976    7.7281 H   0  0  0  0  0  0  0  0  0  0  0  0
 12 13  1  0
 13 11  1  0
 11  1  1  0
  1  2  2  0
  2  3  1  0
  3  4  1  0
  4  5  2  0
  5  6  1  0
  6  7  2  0
  7  8  1  0
  8  9  2  0
  9  1  1  0
  9  4  1  0
 12 14  1  0
 12 15  1  0
 12 16  1  0
  3 10  1  0
M  CHG 1  12   1
M  END
> <minimizedAffinity>
-6.64305

> <CNNscore>
0.9308377504

> <CNNaffinity>
4.8430271149

> <CNN_VS>
4.5080723763

> <CNNaffinity_variance>
0.1773989052

$$$$
Tryptamine_like


 16 17  0  0  0  0  0  0  0  0999 V2000
   22.6421   16.0585    7.1869 C   0  0  0  0  0  0  0  0  0  0  0  0
   22.2187   16.3611    8.4662 C   0  0  0  0  0  0  0  0  0  0  0  0
   22.7156   15.4110    9.3203 N   0  0  0  0  0  0  0  0  0  0  0  0
   23.4474   14.4820    8.6193 C   0  0  0  0  0  0  0  0  0  0  0  0
   24.1231   13.3440    9.0742 C   0  0  0  0  0  0  0  0  0  0  0  0
   24.8074   12.5755    8.1295 C   0  0  0  0  0  0  0  0  0  0  0  0
   24.8175   12.9353    6.7847 C   0  0  0  0  0  0  0  0  0  0  0  0
   24.1362   14.0770    6.3457 C   0  0  0  0  0  0  0  0  0  0  0  0
   23.4323   14.8671    7.2789 C   0  0  0  0  0  0  0  0  0  0  0  0
   22.5746   15.3890   10.3224 H   0  0  0  0  0  0  0  0  0  0  0  0
   22.3255   16.8230    5.9481 C   0  0  0  0  0  0  0  0  0  0  0  0
   21.1046   18.9069    5.4142 N   0  0  0  0  0  0  0  0  0  0  0  0
   22.1940   18.3165    6.2376 C   0  0  0  0  0  0  0  0  0  0  0  0
   21.0101   19.9133    5.6055 H   0  0  0  0  0  0  0  0  0  0  0  0
   20.1952   18.4703    5.6155 H   0  0  0  0  0  0  0  0  0  0  0  0
   21.2901   18.8031    4.4077 H   0  0  0  0  0  0  0  0  0  0  0  0
 12 13  1  0
 13 11  1  0
 11  1  1  0
  1  2  2  0
  2  3  1  0
  3  4  1  0
  4  5  2  0
  5  6  1  0
  6  7  2  0
  7  8  1  0
  8  9  2  0
  9  1  1  0
  9  4  1  0
 12 14  1  0
 12 15  1  0
 12 16  1  0
  3 10  1  0
M  CHG 1  12   1
M  END
> <minimizedAffinity>
-6.58526

> <CNNscore>
0.9223481417

> <CNNaffinity>
5.1089739799

> <CNN_VS>
4.7122526169

> <CNNaffinity_variance>
0.0184270609

$$$$
Tryptamine_like


 16 17  0  0  0  0  0  0  0  0999 V2000
   22.6831   16.2713    7.0081 C   0  0  0  0  0  0  0  0  0  0  0  0
   22.8831   16.2149    5.6427 C   0  0  0  0  0  0  0  0  0  0  0  0
   23.6046   15.0843    5.3594 N   0  0  0  0  0  0  0  0  0  0  0  0
   23.8927   14.4049    6.5194 C   0  0  0  0  0  0  0  0  0  0  0  0
   24.6077   13.2168    6.7087 C   0  0  0  0  0  0  0  0  0  0  0  0
   24.7367   12.7390    8.0150 C   0  0  0  0  0  0  0  0  0  0  0  0
   24.1688   13.4219    9.0870 C   0  0  0  0  0  0  0  0  0  0  0  0
   23.4566   14.6095    8.8806 C   0  0  0  0  0  0  0  0  0  0  0  0
   23.3168   15.1165    7.5715 C   0  0  0  0  0  0  0  0  0  0  0  0
   23.8857   14.7816    4.4354 H   0  0  0  0  0  0  0  0  0  0  0  0
   21.9554   17.3383    7.7505 C   0  0  0  0  0  0  0  0  0  0  0  0
   20.8891   19.5469    7.4287 N   0  0  0  0  0  0  0  0  0  0  0  0
   22.0134   18.6697    7.0049 C   0  0  0  0  0  0  0  0  0  0  0  0
   20.9232   20.4464    6.9305 H   0  0  0  0  0  0  0  0  0  0  0  0
   20.9252   19.7531    8.4358 H   0  0  0  0  0  0  0  0  0  0  0  0
   19.9759   19.1191    7.2253 H   0  0  0  0  0  0  0  0  0  0  0  0
 12 13  1  0
 13 11  1  0
 11  1  1  0
  1  2  2  0
  2  3  1  0
  3  4  1  0
  4  5  2  0
  5  6  1  0
  6  7  2  0
  7  8  1  0
  8  9  2  0
  9  1  1  0
  9  4  1  0
 12 14  1  0
 12 15  1  0
 12 16  1  0
  3 10  1  0
M  CHG 1  12   1
M  END
> <minimizedAffinity>
-6.18279

> <CNNscore>
0.8997095823

> <CNNaffinity>
4.9859390259

> <CNN_VS>
4.4858970642

> <CNNaffinity_variance>
0.0473203547

$$$$
Tryptamine_like


 16 17  0  0  0  0  0  0  0  0999 V2000
   22.5486   15.9540    8.2106 C   0  0  0  0  0  0  0  0  0  0  0  0
   22.4247   16.5210    6.9574 C   0  0  0  0  0  0  0  0  0  0  0  0
   23.0815   15.7231    6.0568 N   0  0  0  0  0  0  0  0  0  0  0  0
   23.6461   14.6483    6.7018 C   0  0  0  0  0  0  0  0  0  0  0  0
   24.4084   13.5932    6.1878 C   0  0  0  0  0  0  0  0  0  0  0  0
   24.8487   12.6153    7.0830 C   0  0  0  0  0  0  0  0  0  0  0  0
   24.5343   12.6899    8.4370 C   0  0  0  0  0  0  0  0  0  0  0  0
   23.7707   13.7523    8.9355 C   0  0  0  0  0  0  0  0  0  0  0  0
   23.3187   14.7562    8.0532 C   0  0  0  0  0  0  0  0  0  0  0  0
   23.1444   15.8886    5.0602 H   0  0  0  0  0  0  0  0  0  0  0  0
   21.9943   16.4949    9.4832 C   0  0  0  0  0  0  0  0  0  0  0  0
   20.1679   18.1488    9.2661 N   0  0  0  0  0  0  0  0  0  0  0  0
   20.4842   16.7001    9.3862 C   0  0  0  0  0  0  0  0  0  0  0  0
   19.1516   18.2938    9.1993 H   0  0  0  0  0  0  0  0  0  0  0  0
   20.5922   18.5632    8.4256 H   0  0  0  0  0  0  0  0  0  0  0  0
   20.4993   18.6792   10.0829 H   0  0  0  0  0  0  0  0  0  0  0  0
 12 13  1  0
 13 11  1  0
 11  1  1  0
  1  2  2  0
  2  3  1  0
  3  4  1  0
  4  5  2  0
  5  6  1  0
  6  7  2  0
  7  8  1  0
  8  9  2  0
  9  1  1  0
  9  4  1  0
 12 14  1  0
 12 15  1  0
 12 16  1  0
  3 10  1  0
M  CHG 1  12   1
M  END
> <minimizedAffinity>
-6.24867

> <CNNscore>
0.8785630465

> <CNNaffinity>
4.6445746422

> <CNN_VS>
4.0805516243

> <CNNaffinity_variance>
0.0971811786

$$$$
Tryptamine_like


 16 17  0  0  0  0  0  0  0  0999 V2000
   22.5332   15.9458    8.3944 C   0  0  0  0  0  0  0  0  0  0  0  0
   22.4219   15.5625    9.7166 C   0  0  0  0  0  0  0  0  0  0  0  0
   23.0833   14.3726    9.8772 N   0  0  0  0  0  0  0  0  0  0  0  0
   23.6154   13.9623    8.6778 C   0  0  0  0  0  0  0  0  0  0  0  0
   24.3550   12.8146    8.3706 C   0  0  0  0  0  0  0  0  0  0  0  0
   24.7880   12.6561    7.0520 C   0  0  0  0  0  0  0  0  0  0  0  0
   24.4951   13.6108    6.0821 C   0  0  0  0  0  0  0  0  0  0  0  0
   23.7538   14.7536    6.4057 C   0  0  0  0  0  0  0  0  0  0  0  0
   23.2996   14.9347    7.7291 C   0  0  0  0  0  0  0  0  0  0  0  0
   23.1765   13.8639   10.7472 H   0  0  0  0  0  0  0  0  0  0  0  0
   21.9549   17.1732    7.7793 C   0  0  0  0  0  0  0  0  0  0  0  0
   20.7617   19.2975    8.2061 N   0  0  0  0  0  0  0  0  0  0  0  0
   21.2353   18.0279    8.8203 C   0  0  0  0  0  0  0  0  0  0  0  0
   20.2748   19.8776    8.9024 H   0  0  0  0  0  0  0  0  0  0  0  0
   20.1021   19.1254    7.4359 H   0  0  0  0  0  0  0  0  0  0  0  0
   21.5429   19.8551    7.8360 H   0  0  0  0  0  0  0  0  0  0  0  0
 12 13  1  0
 13 11  1  0
 11  1  1  0
  1  2  2  0
  2  3  1  0
  3  4  1  0
  4  5  2  0
  5  6  1  0
  6  7  2  0
  7  8  1  0
  8  9  2  0
  9  1  1  0
  9  4  1  0
 12 14  1  0
 12 15  1  0
 12 16  1  0
  3 10  1  0
M  CHG 1  12   1
M  END
> <minimizedAffinity>
-6.23762

> <CNNscore>
0.8529585600

> <CNNaffinity>
5.0254287720

> <CNN_VS>
4.2864823341

> <CNNaffinity_variance>
0.0256555751

$$$$
Tryptamine_like


 16 17  0  0  0  0  0  0  0  0999 V2000
   22.5192   15.9700    8.3690 C   0  0  0  0  0  0  0  0  0  0  0  0
   22.4092   15.5958    9.6939 C   0  0  0  0  0  0  0  0  0  0  0  0
   23.0719   14.4077    9.8623 N   0  0  0  0  0  0  0  0  0  0  0  0
   23.6037   13.9897    8.6654 C   0  0  0  0  0  0  0  0  0  0  0  0
   24.3444   12.8407    8.3658 C   0  0  0  0  0  0  0  0  0  0  0  0
   24.7766   12.6735    7.0480 C   0  0  0  0  0  0  0  0  0  0  0  0
   24.4821   13.6211    6.0717 C   0  0  0  0  0  0  0  0  0  0  0  0
   23.7398   14.7653    6.3878 C   0  0  0  0  0  0  0  0  0  0  0  0
   23.2862   14.9551    7.7102 C   0  0  0  0  0  0  0  0  0  0  0  0
   23.1663   13.9052   10.7358 H   0  0  0  0  0  0  0  0  0  0  0  0
   21.9392   17.1925    7.7457 C   0  0  0  0  0  0  0  0  0  0  0  0
   21.4760   18.2297    5.5484 N   0  0  0  0  0  0  0  0  0  0  0  0
   22.4153   17.3581    6.3043 C   0  0  0  0  0  0  0  0  0  0  0  0
   21.7919   18.3461    4.5763 H   0  0  0  0  0  0  0  0  0  0  0  0
   21.4095   19.1685    5.9633 H   0  0  0  0  0  0  0  0  0  0  0  0
   20.5288   17.8295    5.5162 H   0  0  0  0  0  0  0  0  0  0  0  0
 12 13  1  0
 13 11  1  0
 11  1  1  0
  1  2  2  0
  2  3  1  0
  3  4  1  0
  4  5  2  0
  5  6  1  0
  6  7  2  0
  7  8  1  0
  8  9  2  0
  9  1  1  0
  9  4  1  0
 12 14  1  0
 12 15  1  0
 12 16  1  0
  3 10  1  0
M  CHG 1  12   1
M  END
> <minimizedAffinity>
-6.52039

> <CNNscore>
0.8513882160

> <CNNaffinity>
4.9095149040

> <CNN_VS>
4.1799030304

> <CNNaffinity_variance>
0.0336894877

$$$$
Tryptamine_like


 16 17  0  0  0  0  0  0  0  0999 V2000
   22.4095   16.0518    7.5334 C   0  0  0  0  0  0  0  0  0  0  0  0
   22.4056   16.3686    6.1892 C   0  0  0  0  0  0  0  0  0  0  0  0
   23.1620   15.4380    5.5251 N   0  0  0  0  0  0  0  0  0  0  0  0
   23.6734   14.5231    6.4148 C   0  0  0  0  0  0  0  0  0  0  0  0
   24.4990   13.4162    6.1876 C   0  0  0  0  0  0  0  0  0  0  0  0
   24.8599   12.6393    7.2910 C   0  0  0  0  0  0  0  0  0  0  0  0
   24.4084   12.9566    8.5690 C   0  0  0  0  0  0  0  0  0  0  0  0
   23.5829   14.0677    8.7795 C   0  0  0  0  0  0  0  0  0  0  0  0
   23.2087   14.8722    7.6826 C   0  0  0  0  0  0  0  0  0  0  0  0
   23.3236   15.4152    4.5262 H   0  0  0  0  0  0  0  0  0  0  0  0
   21.7209   16.8035    8.6197 C   0  0  0  0  0  0  0  0  0  0  0  0
   22.1810   16.9513   11.0456 N   0  0  0  0  0  0  0  0  0  0  0  0
   21.7754   16.0405    9.9414 C   0  0  0  0  0  0  0  0  0  0  0  0
   22.2186   16.4433   11.9394 H   0  0  0  0  0  0  0  0  0  0  0  0
   21.5169   17.7280   11.1625 H   0  0  0  0  0  0  0  0  0  0  0  0
   23.1138   17.3535   10.8832 H   0  0  0  0  0  0  0  0  0  0  0  0
 12 13  1  0
 13 11  1  0
 11  1  1  0
  1  2  2  0
  2  3  1  0
  3  4  1  0
  4  5  2  0
  5  6  1  0
  6  7  2  0
  7  8  1  0
  8  9  2  0
  9  1  1  0
  9  4  1  0
 12 14  1  0
 12 15  1  0
 12 16  1  0
  3 10  1  0
M  CHG 1  12   1
M  END
> <minimizedAffinity>
-6.09797

> <CNNscore>
0.8483702540

> <CNNaffinity>
4.5658836365

> <CNN_VS>
3.8735599518

> <CNNaffinity_variance>
0.2518147528

$$$$
Tryptamine_like


 16 17  0  0  0  0  0  0  0  0999 V2000
   23.9754   13.9899    7.8913 C   0  0  0  0  0  0  0  0  0  0  0  0
   24.4160   12.8194    7.3056 C   0  0  0  0  0  0  0  0  0  0  0  0
   24.4652   13.0086    5.9488 N   0  0  0  0  0  0  0  0  0  0  0  0
   24.0509   14.2811    5.6341 C   0  0  0  0  0  0  0  0  0  0  0  0
   23.9321   14.9025    4.3857 C   0  0  0  0  0  0  0  0  0  0  0  0
   23.4928   16.2283    4.3607 C   0  0  0  0  0  0  0  0  0  0  0  0
   23.1890   16.9047    5.5388 C   0  0  0  0  0  0  0  0  0  0  0  0
   23.3130   16.2687    6.7799 C   0  0  0  0  0  0  0  0  0  0  0  0
   23.7491   14.9279    6.8323 C   0  0  0  0  0  0  0  0  0  0  0  0
   24.7653   12.3212    5.2692 H   0  0  0  0  0  0  0  0  0  0  0  0
   23.7664   14.2244    9.3476 C   0  0  0  0  0  0  0  0  0  0  0  0
   21.8611   15.2879   10.5125 N   0  0  0  0  0  0  0  0  0  0  0  0
   23.0080   15.5264    9.5954 C   0  0  0  0  0  0  0  0  0  0  0  0
   21.3464   16.1620   10.6845 H   0  0  0  0  0  0  0  0  0  0  0  0
   22.1713   14.9306   11.4258 H   0  0  0  0  0  0  0  0  0  0  0  0
   21.1931   14.6123   10.1180 H   0  0  0  0  0  0  0  0  0  0  0  0
 12 13  1  0
 13 11  1  0
 11  1  1  0
  1  2  2  0
  2  3  1  0
  3  4  1  0
  4  5  2  0
  5  6  1  0
  6  7  2  0
  7  8  1  0
  8  9  2  0
  9  1  1  0
  9  4  1  0
 12 14  1  0
 12 15  1  0
 12 16  1  0
  3 10  1  0
M  CHG 1  12   1
M  END
> <minimizedAffinity>
-5.79148

> <CNNscore>
0.7959933281

> <CNNaffinity>
4.4588227272

> <CNN_VS>
3.5491931438

> <CNNaffinity_variance>
0.3078852594

$$$$
Tryptamine_like


 16 17  0  0  0  0  0  0  0  0999 V2000
   18.9717   20.3729   10.7461 C   0  0  0  0  0  0  0  0  0  0  0  0
   17.7932   19.8088   10.2984 C   0  0  0  0  0  0  0  0  0  0  0  0
   17.9949   18.4628   10.1348 N   0  0  0  0  0  0  0  0  0  0  0  0
   19.2916   18.1371   10.4552 C   0  0  0  0  0  0  0  0  0  0  0  0
   19.9374   16.8958   10.4278 C   0  0  0  0  0  0  0  0  0  0  0  0
   21.2760   16.8526   10.8248 C   0  0  0  0  0  0  0  0  0  0  0  0
   21.9388   18.0056   11.2362 C   0  0  0  0  0  0  0  0  0  0  0  0
   21.2784   19.2399   11.2578 C   0  0  0  0  0  0  0  0  0  0  0  0
   19.9278   19.3117   10.8560 C   0  0  0  0  0  0  0  0  0  0  0  0
   17.2978   17.7962    9.8280 H   0  0  0  0  0  0  0  0  0  0  0  0
   19.2028   21.8137   11.0458 C   0  0  0  0  0  0  0  0  0  0  0  0
   17.9163   23.9153   11.2613 N   0  0  0  0  0  0  0  0  0  0  0  0
   18.1056   22.6877   10.4425 C   0  0  0  0  0  0  0  0  0  0  0  0
   17.1786   24.5092   10.8593 H   0  0  0  0  0  0  0  0  0  0  0  0
   18.7746   24.4805   11.3050 H   0  0  0  0  0  0  0  0  0  0  0  0
   17.6358   23.6898   12.2251 H   0  0  0  0  0  0  0  0  0  0  0  0
 12 13  1  0
 13 11  1  0
 11  1  1  0
  1  2  2  0
  2  3  1  0
  3  4  1  0
  4  5  2  0
  5  6  1  0
  6  7  2  0
  7  8  1  0
  8  9  2  0
  9  1  1  0
  9  4  1  0
 12 14  1  0
 12 15  1  0
 12 16  1  0
  3 10  1  0
M  CHG 1  12   1
M  END
> <minimizedAffinity>
-4.59540

> <CNNscore>
0.7269564867

> <CNNaffinity>
4.2889552116

> <CNN_VS>
3.1178839207

> <CNNaffinity_variance>
0.2347861975

$$$$
Tryptamine_like


 16 17  0  0  0  0  0  0  0  0999 V2000
   27.4039   27.9258   -8.3487 C   0  0  0  0  0  0  0  0  0  0  0  0
   26.9054   28.7274   -7.3405 C   0  0  0  0  0  0  0  0  0  0  0  0
   26.3141   27.9216   -6.4022 N   0  0  0  0  0  0  0  0  0  0  0  0
   26.4049   26.6046   -6.7859 C   0  0  0  0  0  0  0  0  0  0  0  0
   25.9372   25.4503   -6.1476 C   0  0  0  0  0  0  0  0  0  0  0  0
   26.1849   24.2222   -6.7657 C   0  0  0  0  0  0  0  0  0  0  0  0
   26.8766   24.1538   -7.9718 C   0  0  0  0  0  0  0  0  0  0  0  0
   27.3379   25.3181   -8.5977 C   0  0  0  0  0  0  0  0  0  0  0  0
   27.0956   26.5716   -7.9972 C   0  0  0  0  0  0  0  0  0  0  0  0
   25.8758   28.2383   -5.5466 H   0  0  0  0  0  0  0  0  0  0  0  0
   28.1165   28.3874   -9.5728 C   0  0  0  0  0  0  0  0  0  0  0  0
   26.5163   29.8440  -10.7712 N   0  0  0  0  0  0  0  0  0  0  0  0
   27.7393   29.8248   -9.9242 C   0  0  0  0  0  0  0  0  0  0  0  0
   26.2562   30.8102  -11.0106 H   0  0  0  0  0  0  0  0  0  0  0  0
   25.7122   29.4209  -10.2892 H   0  0  0  0  0  0  0  0  0  0  0  0
   26.6584   29.3376  -11.6553 H   0  0  0  0  0  0  0  0  0  0  0  0
 12 13  1  0
 13 11  1  0
 11  1  1  0
  1  2  2  0
  2  3  1  0
  3  4  1  0
  4  5  2  0
  5  6  1  0
  6  7  2  0
  7  8  1  0
  8  9  2  0
  9  1  1  0
  9  4  1  0
 12 14  1  0
 12 15  1  0
 12 16  1  0
  3 10  1  0
M  CHG 1  12   1
M  END
> <minimizedAffinity>
-4.92892

> <CNNscore>
0.6847808361

> <CNNaffinity>
4.2047181129

> <CNN_VS>
2.8793103695

> <CNNaffinity_variance>
0.1453980654

$$$$
Tryptamine_like


 16 17  0  0  0  0  0  0  0  0999 V2000
   23.1497   15.9628    6.4760 C   0  0  0  0  0  0  0  0  0  0  0  0
   23.9362   14.8539    6.2323 C   0  0  0  0  0  0  0  0  0  0  0  0
   23.9685   14.0902    7.3702 N   0  0  0  0  0  0  0  0  0  0  0  0
   23.2263   14.6877    8.3612 C   0  0  0  0  0  0  0  0  0  0  0  0
   22.9883   14.2735    9.6767 C   0  0  0  0  0  0  0  0  0  0  0  0
   22.1718   15.0804   10.4727 C   0  0  0  0  0  0  0  0  0  0  0  0
   21.6135   16.2521    9.9695 C   0  0  0  0  0  0  0  0  0  0  0  0
   21.8615   16.6527    8.6511 C   0  0  0  0  0  0  0  0  0  0  0  0
   22.6876   15.8585    7.8281 C   0  0  0  0  0  0  0  0  0  0  0  0
   24.4595   13.2115    7.4754 H   0  0  0  0  0  0  0  0  0  0  0  0
   22.8506   17.0615    5.5155 C   0  0  0  0  0  0  0  0  0  0  0  0
   21.1518   18.8586    5.4615 N   0  0  0  0  0  0  0  0  0  0  0  0
   22.2876   18.2862    6.2332 C   0  0  0  0  0  0  0  0  0  0  0  0
   20.7671   19.6838    5.9405 H   0  0  0  0  0  0  0  0  0  0  0  0
   20.3847   18.1818    5.3538 H   0  0  0  0  0  0  0  0  0  0  0  0
   21.4438   19.1589    4.5219 H   0  0  0  0  0  0  0  0  0  0  0  0
 12 13  1  0
 13 11  1  0
 11  1  1  0
  1  2  2  0
  2  3  1  0
  3  4  1  0
  4  5  2  0
  5  6  1  0
  6  7  2  0
  7  8  1  0
  8  9  2  0
  9  1  1  0
  9  4  1  0
 12 14  1  0
 12 15  1  0
 12 16  1  0
  3 10  1  0
M  CHG 1  12   1
M  END
> <minimizedAffinity>
-5.92764

> <CNNscore>
0.6674792171

> <CNNaffinity>
4.5092811584

> <CNN_VS>
3.0098514557

> <CNNaffinity_variance>
0.2029453069

$$$$
Tryptamine_like


 16 17  0  0  0  0  0  0  0  0999 V2000
   26.2592   28.1307   -6.7970 C   0  0  0  0  0  0  0  0  0  0  0  0
   26.8998   28.6880   -7.8862 C   0  0  0  0  0  0  0  0  0  0  0  0
   27.3563   27.6712   -8.6842 N   0  0  0  0  0  0  0  0  0  0  0  0
   27.0369   26.4550   -8.1284 C   0  0  0  0  0  0  0  0  0  0  0  0
   27.3083   25.1607   -8.5865 C   0  0  0  0  0  0  0  0  0  0  0  0
   26.8467   24.0904   -7.8165 C   0  0  0  0  0  0  0  0  0  0  0  0
   26.1386   24.3086   -6.6380 C   0  0  0  0  0  0  0  0  0  0  0  0
   25.8754   25.6099   -6.1934 C   0  0  0  0  0  0  0  0  0  0  0  0
   26.3358   26.7083   -6.9497 C   0  0  0  0  0  0  0  0  0  0  0  0
   27.8528   27.7868   -9.5585 H   0  0  0  0  0  0  0  0  0  0  0  0
   25.6209   28.8721   -5.6735 C   0  0  0  0  0  0  0  0  0  0  0  0
   26.9543   30.7056   -4.6842 N   0  0  0  0  0  0  0  0  0  0  0  0
   25.9557   30.3609   -5.7317 C   0  0  0  0  0  0  0  0  0  0  0  0
   27.1850   31.7076   -4.7188 H   0  0  0  0  0  0  0  0  0  0  0  0
   27.8325   30.1847   -4.8087 H   0  0  0  0  0  0  0  0  0  0  0  0
   26.5986   30.5062   -3.7397 H   0  0  0  0  0  0  0  0  0  0  0  0
 12 13  1  0
 13 11  1  0
 11  1  1  0
  1  2  2  0
  2  3  1  0
  3  4  1  0
  4  5  2  0
  5  6  1  0
  6  7  2  0
  7  8  1  0
  8  9  2  0
  9  1  1  0
  9  4  1  0
 12 14  1  0
 12 15  1  0
 12 16  1  0
  3 10  1  0
M  CHG 1  12   1
M  END
> <minimizedAffinity>
-4.62896

> <CNNscore>
0.6476374269

> <CNNaffinity>
4.1989512444

> <CNN_VS>
2.7193980217

> <CNNaffinity_variance>
0.2262579948

$$$$
Tryptamine_like


 16 17  0  0  0  0  0  0  0  0999 V2000
   22.6530   15.7131    9.1540 C   0  0  0  0  0  0  0  0  0  0  0  0
   23.0153   14.4634    9.6168 C   0  0  0  0  0  0  0  0  0  0  0  0
   23.4974   13.7357    8.5598 N   0  0  0  0  0  0  0  0  0  0  0  0
   23.4444   14.4842    7.4079 C   0  0  0  0  0  0  0  0  0  0  0  0
   23.8194   14.1481    6.1020 C   0  0  0  0  0  0  0  0  0  0  0  0
   23.6677   15.1228    5.1129 C   0  0  0  0  0  0  0  0  0  0  0  0
   23.1648   16.3838    5.4208 C   0  0  0  0  0  0  0  0  0  0  0  0
   22.7940   16.7042    6.7324 C   0  0  0  0  0  0  0  0  0  0  0  0
   22.9317   15.7356    7.7489 C   0  0  0  0  0  0  0  0  0  0  0  0
   23.8477   12.7875    8.6092 H   0  0  0  0  0  0  0  0  0  0  0  0
   22.0727   16.8206    9.9640 C   0  0  0  0  0  0  0  0  0  0  0  0
   19.6782   16.4911    9.4386 N   0  0  0  0  0  0  0  0  0  0  0  0
   20.8372   17.4117    9.2888 C   0  0  0  0  0  0  0  0  0  0  0  0
   18.8419   16.8843    8.9865 H   0  0  0  0  0  0  0  0  0  0  0  0
   19.4446   16.3301   10.4273 H   0  0  0  0  0  0  0  0  0  0  0  0
   19.8601   15.5771    9.0029 H   0  0  0  0  0  0  0  0  0  0  0  0
 12 13  1  0
 13 11  1  0
 11  1  1  0
  1  2  2  0
  2  3  1  0
  3  4  1  0
  4  5  2  0
  5  6  1  0
  6  7  2  0
  7  8  1  0
  8  9  2  0
  9  1  1  0
  9  4  1  0
 12 14  1  0
 12 15  1  0
 12 16  1  0
  3 10  1  0
M  CHG 1  12   1
M  END
> <minimizedAffinity>
-5.76518

> <CNNscore>
0.6182758212

> <CNNaffinity>
4.6318912506

> <CNN_VS>
2.8637864590

> <CNNaffinity_variance>
0.0437105633

$$$$
Tryptamine_like


 16 17  0  0  0  0  0  0  0  0999 V2000
   23.3039   14.8889    6.3706 C   0  0  0  0  0  0  0  0  0  0  0  0
   22.6792   15.7918    5.5327 C   0  0  0  0  0  0  0  0  0  0  0  0
   21.9010   16.6217    6.2973 N   0  0  0  0  0  0  0  0  0  0  0  0
   21.9949   16.2689    7.6227 C   0  0  0  0  0  0  0  0  0  0  0  0
   21.3731   16.8269    8.7455 C   0  0  0  0  0  0  0  0  0  0  0  0
   21.6651   16.2691    9.9925 C   0  0  0  0  0  0  0  0  0  0  0  0
   22.5473   15.1986   10.1096 C   0  0  0  0  0  0  0  0  0  0  0  0
   23.1611   14.6516    8.9763 C   0  0  0  0  0  0  0  0  0  0  0  0
   22.8785   15.1929    7.7044 C   0  0  0  0  0  0  0  0  0  0  0  0
   21.3391   17.3880    5.9487 H   0  0  0  0  0  0  0  0  0  0  0  0
   24.2341   13.8003    5.9595 C   0  0  0  0  0  0  0  0  0  0  0  0
   24.8638   11.8918    7.4015 N   0  0  0  0  0  0  0  0  0  0  0  0
   25.0958   13.3363    7.1317 C   0  0  0  0  0  0  0  0  0  0  0  0
   25.4425   11.5726    8.1899 H   0  0  0  0  0  0  0  0  0  0  0  0
   25.1047   11.3088    6.5891 H   0  0  0  0  0  0  0  0  0  0  0  0
   23.8825   11.7039    7.6468 H   0  0  0  0  0  0  0  0  0  0  0  0
 12 13  1  0
 13 11  1  0
 11  1  1  0
  1  2  2  0
  2  3  1  0
  3  4  1  0
  4  5  2  0
  5  6  1  0
  6  7  2  0
  7  8  1  0
  8  9  2  0
  9  1  1  0
  9  4  1  0
 12 14  1  0
 12 15  1  0
 12 16  1  0
  3 10  1  0
M  CHG 1  12   1
M  END
> <minimizedAffinity>
-6.05943

> <CNNscore>
0.5799102783

> <CNNaffinity>
4.3648705482

> <CNN_VS>
2.5312333107

> <CNNaffinity_variance>
0.1826914102

$$$$
Tryptamine_like


 16 17  0  0  0  0  0  0  0  0999 V2000
   23.2299   15.2670    7.6115 C   0  0  0  0  0  0  0  0  0  0  0  0
   22.4589   15.5602    6.5039 C   0  0  0  0  0  0  0  0  0  0  0  0
   21.3883   16.3131    6.9114 N   0  0  0  0  0  0  0  0  0  0  0  0
   21.4377   16.5072    8.2715 C   0  0  0  0  0  0  0  0  0  0  0  0
   20.5576   17.1995    9.1111 C   0  0  0  0  0  0  0  0  0  0  0  0
   20.8650   17.2489   10.4729 C   0  0  0  0  0  0  0  0  0  0  0  0
   22.0095   16.6334   10.9719 C   0  0  0  0  0  0  0  0  0  0  0  0
   22.8798   15.9445   10.1185 C   0  0  0  0  0  0  0  0  0  0  0  0
   22.5891   15.8746    8.7397 C   0  0  0  0  0  0  0  0  0  0  0  0
   20.6640   16.6814    6.3079 H   0  0  0  0  0  0  0  0  0  0  0  0
   24.4834   14.4621    7.6269 C   0  0  0  0  0  0  0  0  0  0  0  0
   24.9070   12.1015    7.0212 N   0  0  0  0  0  0  0  0  0  0  0  0
   24.4937   13.4321    6.4995 C   0  0  0  0  0  0  0  0  0  0  0  0
   24.9149   11.4026    6.2663 H   0  0  0  0  0  0  0  0  0  0  0  0
   24.2636   11.7604    7.7477 H   0  0  0  0  0  0  0  0  0  0  0  0
   25.8536   12.1283    7.4231 H   0  0  0  0  0  0  0  0  0  0  0  0
 12 13  1  0
 13 11  1  0
 11  1  1  0
  1  2  2  0
  2  3  1  0
  3  4  1  0
  4  5  2  0
  5  6  1  0
  6  7  2  0
  7  8  1  0
  8  9  2  0
  9  1  1  0
  9  4  1  0
 12 14  1  0
 12 15  1  0
 12 16  1  0
  3 10  1  0
M  CHG 1  12   1
M  END
> <minimizedAffinity>
-5.59791

> <CNNscore>
0.5278846622

> <CNNaffinity>
4.3570747375

> <CNN_VS>
2.3000328541

> <CNNaffinity_variance>
0.1729467362

$$$$
Tryptamine_like


 16 17  0  0  0  0  0  0  0  0999 V2000
   23.3532   14.8887    6.9480 C   0  0  0  0  0  0  0  0  0  0  0  0
   22.5841   15.3276    5.8882 C   0  0  0  0  0  0  0  0  0  0  0  0
   21.6633   16.2236    6.3662 N   0  0  0  0  0  0  0  0  0  0  0  0
   21.8076   16.3692    7.7256 C   0  0  0  0  0  0  0  0  0  0  0  0
   21.0863   17.1640    8.6239 C   0  0  0  0  0  0  0  0  0  0  0  0
   21.4630   17.1273    9.9686 C   0  0  0  0  0  0  0  0  0  0  0  0
   22.5216   16.3301   10.3946 C   0  0  0  0  0  0  0  0  0  0  0  0
   23.2331   15.5406    9.4831 C   0  0  0  0  0  0  0  0  0  0  0  0
   22.8689   15.5550    8.1202 C   0  0  0  0  0  0  0  0  0  0  0  0
   20.9762   16.7152    5.8089 H   0  0  0  0  0  0  0  0  0  0  0  0
   24.4669   13.9015    6.8815 C   0  0  0  0  0  0  0  0  0  0  0  0
   26.0738   13.6957    8.7507 N   0  0  0  0  0  0  0  0  0  0  0  0
   24.7367   13.2785    8.2493 C   0  0  0  0  0  0  0  0  0  0  0  0
   26.2613   13.2799    9.6728 H   0  0  0  0  0  0  0  0  0  0  0  0
   26.1398   14.7167    8.8560 H   0  0  0  0  0  0  0  0  0  0  0  0
   26.8277   13.3927    8.1197 H   0  0  0  0  0  0  0  0  0  0  0  0
 12 13  1  0
 13 11  1  0
 11  1  1  0
  1  2  2  0
  2  3  1  0
  3  4  1  0
  4  5  2  0
  5  6  1  0
  6  7  2  0
  7  8  1  0
  8  9  2  0
  9  1  1  0
  9  4  1  0
 12 14  1  0
 12 15  1  0
 12 16  1  0
  3 10  1  0
M  CHG 1  12   1
M  END
> <minimizedAffinity>
-5.90251

> <CNNscore>
0.5169936419

> <CNNaffinity>
4.5011177063

> <CNN_VS>
2.3270492554

> <CNNaffinity_variance>
0.0726980492

$$$$
Tryptamine_like


 16 17  0  0  0  0  0  0  0  0999 V2000
   20.4057   17.0689   10.4865 C   0  0  0  0  0  0  0  0  0  0  0  0
   19.2598   16.5069    9.9588 C   0  0  0  0  0  0  0  0  0  0  0  0
   18.3140   17.4917    9.8366 N   0  0  0  0  0  0  0  0  0  0  0  0
   18.8173   18.6885   10.2887 C   0  0  0  0  0  0  0  0  0  0  0  0
   18.2094   19.9471   10.3603 C   0  0  0  0  0  0  0  0  0  0  0  0
   18.9711   21.0075   10.8572 C   0  0  0  0  0  0  0  0  0  0  0  0
   20.2891   20.8150   11.2617 C   0  0  0  0  0  0  0  0  0  0  0  0
   20.8826   19.5494   11.1838 C   0  0  0  0  0  0  0  0  0  0  0  0
   20.1330   18.4603   10.6911 C   0  0  0  0  0  0  0  0  0  0  0  0
   17.3806   17.3684    9.4654 H   0  0  0  0  0  0  0  0  0  0  0  0
   21.6778   16.3568   10.7932 C   0  0  0  0  0  0  0  0  0  0  0  0
   23.0496   14.6200    9.6887 N   0  0  0  0  0  0  0  0  0  0  0  0
   22.4069   15.9503    9.5144 C   0  0  0  0  0  0  0  0  0  0  0  0
   23.5418   14.3397    8.8299 H   0  0  0  0  0  0  0  0  0  0  0  0
   22.3588   13.8874    9.8986 H   0  0  0  0  0  0  0  0  0  0  0  0
   23.7426   14.6294   10.4490 H   0  0  0  0  0  0  0  0  0  0  0  0
 12 13  1  0
 13 11  1  0
 11  1  1  0
  1  2  2  0
  2  3  1  0
  3  4  1  0
  4  5  2  0
  5  6  1  0
  6  7  2  0
  7  8  1  0
  8  9  2  0
  9  1  1  0
  9  4  1  0
 12 14  1  0
 12 15  1  0
 12 16  1  0
  3 10  1  0
M  CHG 1  12   1
M  END
> <minimizedAffinity>
-4.53640

> <CNNscore>
0.5029454231

> <CNNaffinity>
4.1883940697

> <CNN_VS>
2.1065335274

> <CNNaffinity_variance>
0.1347278804

$$$$
Tryptamine_like


 16 17  0  0  0  0  0  0  0  0999 V2000
   22.9603   15.9340    7.1648 C   0  0  0  0  0  0  0  0  0  0  0  0
   22.5682   16.9781    6.3503 C   0  0  0  0  0  0  0  0  0  0  0  0
   21.8080   17.8427    7.0943 N   0  0  0  0  0  0  0  0  0  0  0  0
   21.6839   17.3752    8.3811 C   0  0  0  0  0  0  0  0  0  0  0  0
   20.9968   17.9212    9.4713 C   0  0  0  0  0  0  0  0  0  0  0  0
   21.0520   17.2304   10.6843 C   0  0  0  0  0  0  0  0  0  0  0  0
   21.7699   16.0434   10.8007 C   0  0  0  0  0  0  0  0  0  0  0  0
   22.4519   15.5103    9.7003 C   0  0  0  0  0  0  0  0  0  0  0  0
   22.4071   16.1854    8.4622 C   0  0  0  0  0  0  0  0  0  0  0  0
   21.3969   18.7042    6.7575 H   0  0  0  0  0  0  0  0  0  0  0  0
   23.7917   14.7649    6.7632 C   0  0  0  0  0  0  0  0  0  0  0  0
   22.6829   14.2406    4.6151 N   0  0  0  0  0  0  0  0  0  0  0  0
   23.9515   14.6943    5.2462 C   0  0  0  0  0  0  0  0  0  0  0  0
   22.7838   14.1919    3.5924 H   0  0  0  0  0  0  0  0  0  0  0  0
   21.9059   14.8840    4.8159 H   0  0  0  0  0  0  0  0  0  0  0  0
   22.4107   13.3034    4.9404 H   0  0  0  0  0  0  0  0  0  0  0  0
 12 13  1  0
 13 11  1  0
 11  1  1  0
  1  2  2  0
  2  3  1  0
  3  4  1  0
  4  5  2  0
  5  6  1  0
  6  7  2  0
  7  8  1  0
  8  9  2  0
  9  1  1  0
  9  4  1  0
 12 14  1  0
 12 15  1  0
 12 16  1  0
  3 10  1  0
M  CHG 1  12   1
M  END
> <minimizedAffinity>
-5.75097

> <CNNscore>
0.4939756393

> <CNNaffinity>
4.2507858276

> <CNN_VS>
2.0997846127

> <CNNaffinity_variance>
0.2263488024

$$$$
Tryptamine_like


 16 17  0  0  0  0  0  0  0  0999 V2000
   23.8092   13.7557    6.3335 C   0  0  0  0  0  0  0  0  0  0  0  0
   24.2178   12.4558    6.1081 C   0  0  0  0  0  0  0  0  0  0  0  0
   24.9913   12.0576    7.1674 N   0  0  0  0  0  0  0  0  0  0  0  0
   25.1077   13.0808    8.0783 C   0  0  0  0  0  0  0  0  0  0  0  0
   25.8030   13.1262    9.2921 C   0  0  0  0  0  0  0  0  0  0  0  0
   25.7365   14.3083   10.0333 C   0  0  0  0  0  0  0  0  0  0  0  0
   25.0001   15.3987    9.5787 C   0  0  0  0  0  0  0  0  0  0  0  0
   24.3102   15.3372    8.3619 C   0  0  0  0  0  0  0  0  0  0  0  0
   24.3659   14.1568    7.5912 C   0  0  0  0  0  0  0  0  0  0  0  0
   25.4159   11.1453    7.2760 H   0  0  0  0  0  0  0  0  0  0  0  0
   22.9597   14.5832    5.4319 C   0  0  0  0  0  0  0  0  0  0  0  0
   24.4461   14.5647    3.4548 N   0  0  0  0  0  0  0  0  0  0  0  0
   23.8131   15.4276    4.4883 C   0  0  0  0  0  0  0  0  0  0  0  0
   25.0218   15.1281    2.8149 H   0  0  0  0  0  0  0  0  0  0  0  0
   23.7437   14.0755    2.8844 H   0  0  0  0  0  0  0  0  0  0  0  0
   25.0615   13.8562    3.8763 H   0  0  0  0  0  0  0  0  0  0  0  0
 12 13  1  0
 13 11  1  0
 11  1  1  0
  1  2  2  0
  2  3  1  0
  3  4  1  0
  4  5  2  0
  5  6  1  0
  6  7  2  0
  7  8  1  0
  8  9  2  0
  9  1  1  0
  9  4  1  0
 12 14  1  0
 12 15  1  0
 12 16  1  0
  3 10  1  0
M  CHG 1  12   1
M  END
> <minimizedAffinity>
-4.78782

> <CNNscore>
0.4761978388

> <CNNaffinity>
3.6410121918

> <CNN_VS>
1.7338421345

> <CNNaffinity_variance>
0.9344199300

$$$$
Tryptamine_like


 16 17  0  0  0  0  0  0  0  0999 V2000
   23.6306   14.1240    8.5713 C   0  0  0  0  0  0  0  0  0  0  0  0
   22.9643   14.5397    9.7074 C   0  0  0  0  0  0  0  0  0  0  0  0
   22.3166   15.7135    9.4216 N   0  0  0  0  0  0  0  0  0  0  0  0
   22.5587   16.0816    8.1193 C   0  0  0  0  0  0  0  0  0  0  0  0
   22.1137   17.2007    7.4062 C   0  0  0  0  0  0  0  0  0  0  0  0
   22.5079   17.3173    6.0712 C   0  0  0  0  0  0  0  0  0  0  0  0
   23.3116   16.3500    5.4743 C   0  0  0  0  0  0  0  0  0  0  0  0
   23.7485   15.2363    6.2016 C   0  0  0  0  0  0  0  0  0  0  0  0
   23.3693   15.0978    7.5535 C   0  0  0  0  0  0  0  0  0  0  0  0
   21.7387   16.2386   10.0655 H   0  0  0  0  0  0  0  0  0  0  0  0
   24.4695   12.9002    8.4377 C   0  0  0  0  0  0  0  0  0  0  0  0
   26.3887   13.7877    9.7211 N   0  0  0  0  0  0  0  0  0  0  0  0
   25.3669   12.7082    9.6582 C   0  0  0  0  0  0  0  0  0  0  0  0
   26.9962   13.6646   10.5422 H   0  0  0  0  0  0  0  0  0  0  0  0
   25.9563   14.7179    9.7968 H   0  0  0  0  0  0  0  0  0  0  0  0
   26.9945   13.7864    8.8897 H   0  0  0  0  0  0  0  0  0  0  0  0
 12 13  1  0
 13 11  1  0
 11  1  1  0
  1  2  2  0
  2  3  1  0
  3  4  1  0
  4  5  2  0
  5  6  1  0
  6  7  2  0
  7  8  1  0
  8  9  2  0
  9  1  1  0
  9  4  1  0
 12 14  1  0
 12 15  1  0
 12 16  1  0
  3 10  1  0
M  CHG 1  12   1
M  END
> <minimizedAffinity>
-6.68536

> <CNNscore>
0.4470808804

> <CNNaffinity>
4.1945919991

> <CNN_VS>
1.8753218651

> <CNNaffinity_variance>
0.3101731837

$$$$
Tryptamine_like


 15 16  0  0  0  0  0  0  0  0999 V2000
   22.8537   15.5566    6.4666 C   0  0  0  0  0  0  0  0  0  0  0  0
   23.1753   15.1721    5.1780 C   0  0  0  0  0  0  0  0  0  0  0  0
   23.9699   14.0601    5.2452 N   0  0  0  0  0  0  0  0  0  0  0  0
   24.1867   13.7071    6.5557 C   0  0  0  0  0  0  0  0  0  0  0  0
   24.9354   12.6530    7.0938 C   0  0  0  0  0  0  0  0  0  0  0  0
   24.9761   12.5308    8.4856 C   0  0  0  0  0  0  0  0  0  0  0  0
   24.2929   13.4270    9.3035 C   0  0  0  0  0  0  0  0  0  0  0  0
   23.5502   14.4752    8.7477 C   0  0  0  0  0  0  0  0  0  0  0  0
   23.4937   14.6244    7.3467 C   0  0  0  0  0  0  0  0  0  0  0  0
   24.3498   13.5660    4.4505 H   0  0  0  0  0  0  0  0  0  0  0  0
   22.0143   16.7372    6.8506 C   0  0  0  0  0  0  0  0  0  0  0  0
   21.2394   18.6362    5.4090 N   0  0  0  0  0  0  0  0  0  0  0  0
   22.3760   18.0299    6.1044 C   0  0  0  0  0  0  0  0  0  0  0  0
   21.5386   19.4997    4.9597 H   0  0  0  0  0  0  0  0  0  0  0  0
   20.5182   18.8894    6.0814 H   0  0  0  0  0  0  0  0  0  0  0  0
 12 13  1  0
 13 11  1  0
 11  1  1  0
  1  2  2  0
  2  3  1  0
  3  4  1  0
  4  5  2  0
  5  6  1  0
  6  7  2  0
  7  8  1  0
  8  9  2  0
  9  1  1  0
  9  4  1  0
 12 14  1  0
 12 15  1  0
  3 10  1  0
M  END
> <minimizedAffinity>
-6.79470

> <CNNscore>
0.9498765469

> <CNNaffinity>
5.1178913116

> <CNN_VS>
4.8613648415

> <CNNaffinity_variance>
0.0957443491

$$$$
Tryptamine_like


 15 16  0  0  0  0  0  0  0  0999 V2000
   22.6491   16.0488    7.2482 C   0  0  0  0  0  0  0  0  0  0  0  0
   22.2548   16.3522    8.5383 C   0  0  0  0  0  0  0  0  0  0  0  0
   22.7656   15.4021    9.3801 N   0  0  0  0  0  0  0  0  0  0  0  0
   23.4836   14.4707    8.6689 C   0  0  0  0  0  0  0  0  0  0  0  0
   24.1683   13.3312    9.1095 C   0  0  0  0  0  0  0  0  0  0  0  0
   24.8255   12.5576    8.1486 C   0  0  0  0  0  0  0  0  0  0  0  0
   24.7990   12.9129    6.8025 C   0  0  0  0  0  0  0  0  0  0  0  0
   24.1086   14.0551    6.3805 C   0  0  0  0  0  0  0  0  0  0  0  0
   23.4341   14.8528    7.3277 C   0  0  0  0  0  0  0  0  0  0  0  0
   22.6349   15.3793   10.3814 H   0  0  0  0  0  0  0  0  0  0  0  0
   22.2952   16.8213    6.0137 C   0  0  0  0  0  0  0  0  0  0  0  0
   21.0921   18.9393    5.4212 N   0  0  0  0  0  0  0  0  0  0  0  0
   22.1381   18.3314    6.2453 C   0  0  0  0  0  0  0  0  0  0  0  0
   21.0208   19.9310    5.6415 H   0  0  0  0  0  0  0  0  0  0  0  0
   20.1905   18.5230    5.6449 H   0  0  0  0  0  0  0  0  0  0  0  0
 12 13  1  0
 13 11  1  0
 11  1  1  0
  1  2  2  0
  2  3  1  0
  3  4  1  0
  4  5  2  0
  5  6  1  0
  6  7  2  0
  7  8  1  0
  8  9  2  0
  9  1  1  0
  9  4  1  0
 12 14  1  0
 12 15  1  0
  3 10  1  0
M  END
> <minimizedAffinity>
-6.55302

> <CNNscore>
0.9190280437

> <CNNaffinity>
5.1503386497

> <CNN_VS>
4.7333054543

> <CNNaffinity_variance>
0.0260486007

$$$$
Tryptamine_like


 15 16  0  0  0  0  0  0  0  0999 V2000
   23.4623   15.6203    5.8644 C   0  0  0  0  0  0  0  0  0  0  0  0
   24.0765   14.5445    5.2501 C   0  0  0  0  0  0  0  0  0  0  0  0
   24.2932   13.5760    6.1922 N   0  0  0  0  0  0  0  0  0  0  0  0
   23.8411   13.9954    7.4204 C   0  0  0  0  0  0  0  0  0  0  0  0
   23.8621   13.3436    8.6598 C   0  0  0  0  0  0  0  0  0  0  0  0
   23.3192   14.0187    9.7567 C   0  0  0  0  0  0  0  0  0  0  0  0
   22.7762   15.2932    9.6163 C   0  0  0  0  0  0  0  0  0  0  0  0
   22.7649   15.9295    8.3696 C   0  0  0  0  0  0  0  0  0  0  0  0
   23.3082   15.2732    7.2460 C   0  0  0  0  0  0  0  0  0  0  0  0
   24.7262   12.6802    6.0185 H   0  0  0  0  0  0  0  0  0  0  0  0
   23.0623   16.9034    5.2013 C   0  0  0  0  0  0  0  0  0  0  0  0
   21.2680   18.6300    5.4905 N   0  0  0  0  0  0  0  0  0  0  0  0
   22.3577   17.8968    6.1369 C   0  0  0  0  0  0  0  0  0  0  0  0
   20.8269   19.2486    6.1687 H   0  0  0  0  0  0  0  0  0  0  0  0
   20.5513   17.9784    5.1775 H   0  0  0  0  0  0  0  0  0  0  0  0
 12 13  1  0
 13 11  1  0
 11  1  1  0
  1  2  2  0
  2  3  1  0
  3  4  1  0
  4  5  2  0
  5  6  1  0
  6  7  2  0
  7  8  1  0
  8  9  2  0
  9  1  1  0
  9  4  1  0
 12 14  1  0
 12 15  1  0
  3 10  1  0
M  END
> <minimizedAffinity>
-6.16666

> <CNNscore>
0.8838241696

> <CNNaffinity>
4.7599692345

> <CNN_VS>
4.2069759369

> <CNNaffinity_variance>
0.1841741651

$$$$
Tryptamine_like


 15 16  0  0  0  0  0  0  0  0999 V2000
   22.5370   15.9318    8.2095 C   0  0  0  0  0  0  0  0  0  0  0  0
   22.4161   16.5094    6.9591 C   0  0  0  0  0  0  0  0  0  0  0  0
   23.0840   15.7275    6.0564 N   0  0  0  0  0  0  0  0  0  0  0  0
   23.6518   14.6474    6.6888 C   0  0  0  0  0  0  0  0  0  0  0  0
   24.4239   13.6012    6.1687 C   0  0  0  0  0  0  0  0  0  0  0  0
   24.8713   12.6208    7.0588 C   0  0  0  0  0  0  0  0  0  0  0  0
   24.5559   12.6857    8.4135 C   0  0  0  0  0  0  0  0  0  0  0  0
   23.7836   13.7397    8.9156 C   0  0  0  0  0  0  0  0  0  0  0  0
   23.3210   14.7443    8.0410 C   0  0  0  0  0  0  0  0  0  0  0  0
   23.1571   15.9127    5.0662 H   0  0  0  0  0  0  0  0  0  0  0  0
   21.9696   16.4704    9.4877 C   0  0  0  0  0  0  0  0  0  0  0  0
   20.1321   18.1620    9.2713 N   0  0  0  0  0  0  0  0  0  0  0  0
   20.4594   16.7444    9.4342 C   0  0  0  0  0  0  0  0  0  0  0  0
   19.1212   18.2721    9.2157 H   0  0  0  0  0  0  0  0  0  0  0  0
   20.5139   18.5059    8.3926 H   0  0  0  0  0  0  0  0  0  0  0  0
 12 13  1  0
 13 11  1  0
 11  1  1  0
  1  2  2  0
  2  3  1  0
  3  4  1  0
  4  5  2  0
  5  6  1  0
  6  7  2  0
  7  8  1  0
  8  9  2  0
  9  1  1  0
  9  4  1  0
 12 14  1  0
 12 15  1  0
  3 10  1  0
M  END
> <minimizedAffinity>
-6.26036

> <CNNscore>
0.8736405969

> <CNNaffinity>
4.6093850136

> <CNN_VS>
4.0269460678

> <CNNaffinity_variance>
0.1148777008

$$$$
Tryptamine_like


 15 16  0  0  0  0  0  0  0  0999 V2000
   22.4361   15.9337    8.4397 C   0  0  0  0  0  0  0  0  0  0  0  0
   22.4248   15.5308    9.7624 C   0  0  0  0  0  0  0  0  0  0  0  0
   23.1482   14.3740    9.8672 N   0  0  0  0  0  0  0  0  0  0  0  0
   23.6307   13.9998    8.6359 C   0  0  0  0  0  0  0  0  0  0  0  0
   24.4063   12.8927    8.2696 C   0  0  0  0  0  0  0  0  0  0  0  0
   24.7606   12.7660    6.9235 C   0  0  0  0  0  0  0  0  0  0  0  0
   24.3559   13.7110    5.9843 C   0  0  0  0  0  0  0  0  0  0  0  0
   23.5800   14.8108    6.3688 C   0  0  0  0  0  0  0  0  0  0  0  0
   23.2054   14.9626    7.7197 C   0  0  0  0  0  0  0  0  0  0  0  0
   23.3063   13.8607   10.7225 H   0  0  0  0  0  0  0  0  0  0  0  0
   21.7511   17.1438    7.8810 C   0  0  0  0  0  0  0  0  0  0  0  0
   21.4609   18.0667    5.5683 N   0  0  0  0  0  0  0  0  0  0  0  0
   22.4167   17.7113    6.6186 C   0  0  0  0  0  0  0  0  0  0  0  0
   21.9616   18.4603    4.7737 H   0  0  0  0  0  0  0  0  0  0  0  0
   20.8301   18.7908    5.9060 H   0  0  0  0  0  0  0  0  0  0  0  0
 12 13  1  0
 13 11  1  0
 11  1  1  0
  1  2  2  0
  2  3  1  0
  3  4  1  0
  4  5  2  0
  5  6  1  0
  6  7  2  0
  7  8  1  0
  8  9  2  0
  9  1  1  0
  9  4  1  0
 12 14  1  0
 12 15  1  0
  3 10  1  0
M  END
> <minimizedAffinity>
-6.39287

> <CNNscore>
0.8702837825

> <CNNaffinity>
5.1660513878

> <CNN_VS>
4.4959306717

> <CNNaffinity_variance>
0.0005544066

$$$$
Tryptamine_like


 15 16  0  0  0  0  0  0  0  0999 V2000
   22.0289   15.9087    7.6421 C   0  0  0  0  0  0  0  0  0  0  0  0
   21.8204   15.9048    6.2753 C   0  0  0  0  0  0  0  0  0  0  0  0
   22.7446   15.0756    5.7003 N   0  0  0  0  0  0  0  0  0  0  0  0
   23.5664   14.5376    6.6616 C   0  0  0  0  0  0  0  0  0  0  0  0
   24.6446   13.6529    6.5342 C   0  0  0  0  0  0  0  0  0  0  0  0
   25.3060   13.2642    7.7026 C   0  0  0  0  0  0  0  0  0  0  0  0
   24.9019   13.7411    8.9468 C   0  0  0  0  0  0  0  0  0  0  0  0
   23.8224   14.6257    9.0547 C   0  0  0  0  0  0  0  0  0  0  0  0
   23.1383   15.0370    7.8923 C   0  0  0  0  0  0  0  0  0  0  0  0
   22.8210   14.8842    4.7115 H   0  0  0  0  0  0  0  0  0  0  0  0
   21.2491   16.6968    8.6505 C   0  0  0  0  0  0  0  0  0  0  0  0
   21.7156   18.7130    7.2356 N   0  0  0  0  0  0  0  0  0  0  0  0
   21.5052   18.2100    8.5942 C   0  0  0  0  0  0  0  0  0  0  0  0
   21.8518   19.7218    7.2652 H   0  0  0  0  0  0  0  0  0  0  0  0
   20.8843   18.5451    6.6726 H   0  0  0  0  0  0  0  0  0  0  0  0
 12 13  1  0
 13 11  1  0
 11  1  1  0
  1  2  2  0
  2  3  1  0
  3  4  1  0
  4  5  2  0
  5  6  1  0
  6  7  2  0
  7  8  1  0
  8  9  2  0
  9  1  1  0
  9  4  1  0
 12 14  1  0
 12 15  1  0
  3 10  1  0
M  END
> <minimizedAffinity>
-5.91416

> <CNNscore>
0.8650894165

> <CNNaffinity>
4.8503189087

> <CNN_VS>
4.1959595680

> <CNNaffinity_variance>
0.1534777284

$$$$
Tryptamine_like


 15 16  0  0  0  0  0  0  0  0999 V2000
   22.3513   16.2521    8.7389 C   0  0  0  0  0  0  0  0  0  0  0  0
   21.6409   16.9949    7.8139 C   0  0  0  0  0  0  0  0  0  0  0  0
   21.9075   16.4996    6.5666 N   0  0  0  0  0  0  0  0  0  0  0  0
   22.7883   15.4478    6.6490 C   0  0  0  0  0  0  0  0  0  0  0  0
   23.3401   14.6521    5.6373 C   0  0  0  0  0  0  0  0  0  0  0  0
   24.2184   13.6341    6.0194 C   0  0  0  0  0  0  0  0  0  0  0  0
   24.5288   13.4216    7.3600 C   0  0  0  0  0  0  0  0  0  0  0  0
   23.9683   14.2277    8.3576 C   0  0  0  0  0  0  0  0  0  0  0  0
   23.0811   15.2641    8.0010 C   0  0  0  0  0  0  0  0  0  0  0  0
   21.5196   16.8532    5.7036 H   0  0  0  0  0  0  0  0  0  0  0  0
   22.3613   16.4677   10.2219 C   0  0  0  0  0  0  0  0  0  0  0  0
   19.8892   16.1896    9.9125 N   0  0  0  0  0  0  0  0  0  0  0  0
   20.9759   16.3674   10.8771 C   0  0  0  0  0  0  0  0  0  0  0  0
   19.0051   16.1030   10.4105 H   0  0  0  0  0  0  0  0  0  0  0  0
   20.0228   15.3216    9.3978 H   0  0  0  0  0  0  0  0  0  0  0  0
 12 13  1  0
 13 11  1  0
 11  1  1  0
  1  2  2  0
  2  3  1  0
  3  4  1  0
  4  5  2  0
  5  6  1  0
  6  7  2  0
  7  8  1  0
  8  9  2  0
  9  1  1  0
  9  4  1  0
 12 14  1  0
 12 15  1  0
  3 10  1  0
M  END
> <minimizedAffinity>
-5.71264

> <CNNscore>
0.8221407533

> <CNNaffinity>
4.9371247292

> <CNN_VS>
4.0590114594

> <CNNaffinity_variance>
0.0931832492

$$$$
Tryptamine_like


 15 16  0  0  0  0  0  0  0  0999 V2000
   23.4784   14.1594    8.9810 C   0  0  0  0  0  0  0  0  0  0  0  0
   24.5118   13.2422    9.0327 C   0  0  0  0  0  0  0  0  0  0  0  0
   24.9847   13.0533    7.7626 N   0  0  0  0  0  0  0  0  0  0  0  0
   24.2769   13.8228    6.8705 C   0  0  0  0  0  0  0  0  0  0  0  0
   24.4070   13.9427    5.4813 C   0  0  0  0  0  0  0  0  0  0  0  0
   23.5402   14.8188    4.8220 C   0  0  0  0  0  0  0  0  0  0  0  0
   22.5842   15.5458    5.5266 C   0  0  0  0  0  0  0  0  0  0  0  0
   22.4682   15.4123    6.9152 C   0  0  0  0  0  0  0  0  0  0  0  0
   23.3276   14.5335    7.6061 C   0  0  0  0  0  0  0  0  0  0  0  0
   25.7425   12.4358    7.5085 H   0  0  0  0  0  0  0  0  0  0  0  0
   22.6682   14.6409   10.1462 C   0  0  0  0  0  0  0  0  0  0  0  0
   21.2275   16.6838   10.3350 N   0  0  0  0  0  0  0  0  0  0  0  0
   22.5967   16.1702   10.2680 C   0  0  0  0  0  0  0  0  0  0  0  0
   21.2504   17.6963   10.4420 H   0  0  0  0  0  0  0  0  0  0  0  0
   20.7590   16.3118   11.1585 H   0  0  0  0  0  0  0  0  0  0  0  0
 12 13  1  0
 13 11  1  0
 11  1  1  0
  1  2  2  0
  2  3  1  0
  3  4  1  0
  4  5  2  0
  5  6  1  0
  6  7  2  0
  7  8  1  0
  8  9  2  0
  9  1  1  0
  9  4  1  0
 12 14  1  0
 12 15  1  0
  3 10  1  0
M  END
> <minimizedAffinity>
-5.66716

> <CNNscore>
0.8191015124

> <CNNaffinity>
4.7530198097

> <CNN_VS>
3.8932056427

> <CNNaffinity_variance>
0.1564974785

$$$$
Tryptamine_like


 15 16  0  0  0  0  0  0  0  0999 V2000
   23.9718   14.1382    6.2061 C   0  0  0  0  0  0  0  0  0  0  0  0
   24.2151   12.8235    5.8535 C   0  0  0  0  0  0  0  0  0  0  0  0
   24.8498   12.2074    6.8975 N   0  0  0  0  0  0  0  0  0  0  0  0
   25.0384   13.0934    7.9312 C   0  0  0  0  0  0  0  0  0  0  0  0
   25.6438   12.9065    9.1801 C   0  0  0  0  0  0  0  0  0  0  0  0
   25.6912   14.0011   10.0480 C   0  0  0  0  0  0  0  0  0  0  0  0
   25.1522   15.2310    9.6798 C   0  0  0  0  0  0  0  0  0  0  0  0
   24.5517   15.3994    8.4266 C   0  0  0  0  0  0  0  0  0  0  0  0
   24.4922   14.3131    7.5296 C   0  0  0  0  0  0  0  0  0  0  0  0
   25.1443   11.2413    6.9127 H   0  0  0  0  0  0  0  0  0  0  0  0
   23.3100   15.1729    5.3474 C   0  0  0  0  0  0  0  0  0  0  0  0
   21.9236   17.1341    6.0657 N   0  0  0  0  0  0  0  0  0  0  0  0
   21.9703   15.6803    5.9012 C   0  0  0  0  0  0  0  0  0  0  0  0
   21.0041   17.4069    6.4084 H   0  0  0  0  0  0  0  0  0  0  0  0
   22.0472   17.5881    5.1630 H   0  0  0  0  0  0  0  0  0  0  0  0
 12 13  1  0
 13 11  1  0
 11  1  1  0
  1  2  2  0
  2  3  1  0
  3  4  1  0
  4  5  2  0
  5  6  1  0
  6  7  2  0
  7  8  1  0
  8  9  2  0
  9  1  1  0
  9  4  1  0
 12 14  1  0
 12 15  1  0
  3 10  1  0
M  END
> <minimizedAffinity>
-4.95794

> <CNNscore>
0.8190768361

> <CNNaffinity>
4.2929434776

> <CNN_VS>
3.5162506104

> <CNNaffinity_variance>
0.4330035150

$$$$
Tryptamine_like


 15 16  0  0  0  0  0  0  0  0999 V2000
   22.3840   17.2786    7.1389 C   0  0  0  0  0  0  0  0  0  0  0  0
   22.1260   17.1354    8.4898 C   0  0  0  0  0  0  0  0  0  0  0  0
   22.5832   15.9089    8.8886 N   0  0  0  0  0  0  0  0  0  0  0  0
   23.1313   15.2346    7.8238 C   0  0  0  0  0  0  0  0  0  0  0  0
   23.7082   13.9600    7.7639 C   0  0  0  0  0  0  0  0  0  0  0  0
   24.1959   13.5264    6.5279 C   0  0  0  0  0  0  0  0  0  0  0  0
   24.1105   14.3378    5.3995 C   0  0  0  0  0  0  0  0  0  0  0  0
   23.5295   15.6088    5.4783 C   0  0  0  0  0  0  0  0  0  0  0  0
   23.0266   16.0712    6.7118 C   0  0  0  0  0  0  0  0  0  0  0  0
   22.5262   15.5427    9.8282 H   0  0  0  0  0  0  0  0  0  0  0  0
   22.0317   18.4661    6.2953 C   0  0  0  0  0  0  0  0  0  0  0  0
   20.2727   19.9899    7.2272 N   0  0  0  0  0  0  0  0  0  0  0  0
   21.7083   19.7319    7.1026 C   0  0  0  0  0  0  0  0  0  0  0  0
   20.1262   20.8234    7.7937 H   0  0  0  0  0  0  0  0  0  0  0  0
   19.8244   19.2187    7.7176 H   0  0  0  0  0  0  0  0  0  0  0  0
 12 13  1  0
 13 11  1  0
 11  1  1  0
  1  2  2  0
  2  3  1  0
  3  4  1  0
  4  5  2  0
  5  6  1  0
  6  7  2  0
  7  8  1  0
  8  9  2  0
  9  1  1  0
  9  4  1  0
 12 14  1  0
 12 15  1  0
  3 10  1  0
M  END
> <minimizedAffinity>
-5.92316

> <CNNscore>
0.8161569834

> <CNNaffinity>
5.0559449196

> <CNN_VS>
4.1264448166

> <CNNaffinity_variance>
0.0047579617

$$$$
Tryptamine_like


 15 16  0  0  0  0  0  0  0  0999 V2000
   22.4506   15.9111    8.6323 C   0  0  0  0  0  0  0  0  0  0  0  0
   22.4710   15.4025    9.9179 C   0  0  0  0  0  0  0  0  0  0  0  0
   23.1893   14.2379    9.9097 N   0  0  0  0  0  0  0  0  0  0  0  0
   23.6373   13.9626    8.6398 C   0  0  0  0  0  0  0  0  0  0  0  0
   24.3959   12.8854    8.1648 C   0  0  0  0  0  0  0  0  0  0  0  0
   24.7144   12.8667    6.8040 C   0  0  0  0  0  0  0  0  0  0  0  0
   24.2915   13.8864    5.9553 C   0  0  0  0  0  0  0  0  0  0  0  0
   23.5331   14.9548    6.4479 C   0  0  0  0  0  0  0  0  0  0  0  0
   23.1946   14.9983    7.8161 C   0  0  0  0  0  0  0  0  0  0  0  0
   23.3662   13.6562   10.7162 H   0  0  0  0  0  0  0  0  0  0  0  0
   21.7591   17.1656    8.1917 C   0  0  0  0  0  0  0  0  0  0  0  0
   19.6290   17.3711    9.4973 N   0  0  0  0  0  0  0  0  0  0  0  0
   20.9888   17.8806    9.3115 C   0  0  0  0  0  0  0  0  0  0  0  0
   19.1844   17.8659   10.2685 H   0  0  0  0  0  0  0  0  0  0  0  0
   19.6612   16.3879    9.7587 H   0  0  0  0  0  0  0  0  0  0  0  0
 12 13  1  0
 13 11  1  0
 11  1  1  0
  1  2  2  0
  2  3  1  0
  3  4  1  0
  4  5  2  0
  5  6  1  0
  6  7  2  0
  7  8  1  0
  8  9  2  0
  9  1  1  0
  9  4  1  0
 12 14  1  0
 12 15  1  0
  3 10  1  0
M  END
> <minimizedAffinity>
-6.05063

> <CNNscore>
0.8062347174

> <CNNaffinity>
4.9981212616

> <CNN_VS>
4.0296587944

> <CNNaffinity_variance>
0.0622207969

$$$$
Tryptamine_like


 15 16  0  0  0  0  0  0  0  0999 V2000
   22.1583   17.0741    7.6036 C   0  0  0  0  0  0  0  0  0  0  0  0
   22.3551   17.3429    6.2616 C   0  0  0  0  0  0  0  0  0  0  0  0
   23.1039   16.3314    5.7244 N   0  0  0  0  0  0  0  0  0  0  0  0
   23.4132   15.4025    6.6890 C   0  0  0  0  0  0  0  0  0  0  0  0
   24.1579   14.2201    6.5966 C   0  0  0  0  0  0  0  0  0  0  0  0
   24.3085   13.4562    7.7574 C   0  0  0  0  0  0  0  0  0  0  0  0
   23.7347   13.8601    8.9601 C   0  0  0  0  0  0  0  0  0  0  0  0
   22.9943   15.0457    9.0337 C   0  0  0  0  0  0  0  0  0  0  0  0
   22.8283   15.8378    7.8789 C   0  0  0  0  0  0  0  0  0  0  0  0
   23.3950   16.2708    4.7592 H   0  0  0  0  0  0  0  0  0  0  0  0
   21.4053   17.9333    8.5734 C   0  0  0  0  0  0  0  0  0  0  0  0
   19.9280   19.8929    8.0616 N   0  0  0  0  0  0  0  0  0  0  0  0
   21.3060   19.4077    8.1553 C   0  0  0  0  0  0  0  0  0  0  0  0
   19.9327   20.8793    7.8083 H   0  0  0  0  0  0  0  0  0  0  0  0
   19.4754   19.8252    8.9708 H   0  0  0  0  0  0  0  0  0  0  0  0
 12 13  1  0
 13 11  1  0
 11  1  1  0
  1  2  2  0
  2  3  1  0
  3  4  1  0
  4  5  2  0
  5  6  1  0
  6  7  2  0
  7  8  1  0
  8  9  2  0
  9  1  1  0
  9  4  1  0
 12 14  1  0
 12 15  1  0
  3 10  1  0
M  END
> <minimizedAffinity>
-6.14571

> <CNNscore>
0.7552909255

> <CNNaffinity>
4.7678108215

> <CNN_VS>
3.6010842323

> <CNNaffinity_variance>
0.0662840530

$$$$
Tryptamine_like


 15 16  0  0  0  0  0  0  0  0999 V2000
   21.9717   16.4637    8.9218 C   0  0  0  0  0  0  0  0  0  0  0  0
   22.7492   15.9511    9.9438 C   0  0  0  0  0  0  0  0  0  0  0  0
   23.6567   15.0824    9.4013 N   0  0  0  0  0  0  0  0  0  0  0  0
   23.4878   15.0047    8.0396 C   0  0  0  0  0  0  0  0  0  0  0  0
   24.1788   14.2457    7.0869 C   0  0  0  0  0  0  0  0  0  0  0  0
   23.7888   14.3714    5.7506 C   0  0  0  0  0  0  0  0  0  0  0  0
   22.7507   15.2242    5.3846 C   0  0  0  0  0  0  0  0  0  0  0  0
   22.0706   15.9745    6.3510 C   0  0  0  0  0  0  0  0  0  0  0  0
   22.4409   15.8655    7.7072 C   0  0  0  0  0  0  0  0  0  0  0  0
   24.3517   14.5656    9.9208 H   0  0  0  0  0  0  0  0  0  0  0  0
   20.8447   17.4394    9.0761 C   0  0  0  0  0  0  0  0  0  0  0  0
   20.0581   19.7068    8.3517 N   0  0  0  0  0  0  0  0  0  0  0  0
   21.2149   18.8843    8.7101 C   0  0  0  0  0  0  0  0  0  0  0  0
   20.3671   20.6554    8.1476 H   0  0  0  0  0  0  0  0  0  0  0  0
   19.4204   19.7693    9.1427 H   0  0  0  0  0  0  0  0  0  0  0  0
 12 13  1  0
 13 11  1  0
 11  1  1  0
  1  2  2  0
  2  3  1  0
  3  4  1  0
  4  5  2  0
  5  6  1  0
  6  7  2  0
  7  8  1  0
  8  9  2  0
  9  1  1  0
  9  4  1  0
 12 14  1  0
 12 15  1  0
  3 10  1  0
M  END
> <minimizedAffinity>
-5.92030

> <CNNscore>
0.7288862467

> <CNNaffinity>
4.8779149055

> <CNN_VS>
3.5554451942

> <CNNaffinity_variance>
0.0383254141

$$$$
Tryptamine_like


 15 16  0  0  0  0  0  0  0  0999 V2000
   27.3510   27.9537   -8.3463 C   0  0  0  0  0  0  0  0  0  0  0  0
   26.8150   28.7437   -7.3461 C   0  0  0  0  0  0  0  0  0  0  0  0
   26.2308   27.9262   -6.4172 N   0  0  0  0  0  0  0  0  0  0  0  0
   26.3633   26.6098   -6.7895 C   0  0  0  0  0  0  0  0  0  0  0  0
   25.9182   25.4437   -6.1543 C   0  0  0  0  0  0  0  0  0  0  0  0
   26.2037   24.2213   -6.7688 C   0  0  0  0  0  0  0  0  0  0  0  0
   26.9078   24.1701   -7.9690 C   0  0  0  0  0  0  0  0  0  0  0  0
   27.3440   25.3463   -8.5899 C   0  0  0  0  0  0  0  0  0  0  0  0
   27.0677   26.5940   -7.9940 C   0  0  0  0  0  0  0  0  0  0  0  0
   25.7638   28.2379   -5.5776 H   0  0  0  0  0  0  0  0  0  0  0  0
   28.0674   28.4438   -9.5680 C   0  0  0  0  0  0  0  0  0  0  0  0
   26.4395   29.8862  -10.8147 N   0  0  0  0  0  0  0  0  0  0  0  0
   27.6594   29.8582  -10.0060 C   0  0  0  0  0  0  0  0  0  0  0  0
   26.2098   30.8505  -11.0480 H   0  0  0  0  0  0  0  0  0  0  0  0
   25.6583   29.5205  -10.2742 H   0  0  0  0  0  0  0  0  0  0  0  0
 12 13  1  0
 13 11  1  0
 11  1  1  0
  1  2  2  0
  2  3  1  0
  3  4  1  0
  4  5  2  0
  5  6  1  0
  6  7  2  0
  7  8  1  0
  8  9  2  0
  9  1  1  0
  9  4  1  0
 12 14  1  0
 12 15  1  0
  3 10  1  0
M  END
> <minimizedAffinity>
-4.93760

> <CNNscore>
0.7232365608

> <CNNaffinity>
4.2567982674

> <CNN_VS>
3.0786721706

> <CNNaffinity_variance>
0.1238459349

$$$$
Tryptamine_like


 15 16  0  0  0  0  0  0  0  0999 V2000
   22.6345   16.6198    6.1942 C   0  0  0  0  0  0  0  0  0  0  0  0
   23.3962   15.7822    5.4004 C   0  0  0  0  0  0  0  0  0  0  0  0
   23.8322   14.7377    6.1694 N   0  0  0  0  0  0  0  0  0  0  0  0
   23.3795   14.8739    7.4599 C   0  0  0  0  0  0  0  0  0  0  0  0
   23.5828   14.0555    8.5781 C   0  0  0  0  0  0  0  0  0  0  0  0
   22.9885   14.4433    9.7822 C   0  0  0  0  0  0  0  0  0  0  0  0
   22.2208   15.6023    9.8614 C   0  0  0  0  0  0  0  0  0  0  0  0
   22.0292   16.4086    8.7333 C   0  0  0  0  0  0  0  0  0  0  0  0
   22.6193   16.0432    7.5059 C   0  0  0  0  0  0  0  0  0  0  0  0
   24.4076   13.9742    5.8437 H   0  0  0  0  0  0  0  0  0  0  0  0
   21.9776   17.8933    5.7554 C   0  0  0  0  0  0  0  0  0  0  0  0
   20.9715   19.6673    7.2133 N   0  0  0  0  0  0  0  0  0  0  0  0
   22.2113   19.0765    6.7063 C   0  0  0  0  0  0  0  0  0  0  0  0
   21.1954   20.4249    7.8560 H   0  0  0  0  0  0  0  0  0  0  0  0
   20.4511   18.9737    7.7465 H   0  0  0  0  0  0  0  0  0  0  0  0
 12 13  1  0
 13 11  1  0
 11  1  1  0
  1  2  2  0
  2  3  1  0
  3  4  1  0
  4  5  2  0
  5  6  1  0
  6  7  2  0
  7  8  1  0
  8  9  2  0
  9  1  1  0
  9  4  1  0
 12 14  1  0
 12 15  1  0
  3 10  1  0
M  END
> <minimizedAffinity>
-5.87604

> <CNNscore>
0.6804379225

> <CNNaffinity>
4.8814721107

> <CNN_VS>
3.3215386868

> <CNNaffinity_variance>
0.1219355837

$$$$
Tryptamine_like


 15 16  0  0  0  0  0  0  0  0999 V2000
   22.6876   15.7004    9.1662 C   0  0  0  0  0  0  0  0  0  0  0  0
   23.0563   14.4480    9.6217 C   0  0  0  0  0  0  0  0  0  0  0  0
   23.5291   13.7250    8.5605 N   0  0  0  0  0  0  0  0  0  0  0  0
   23.4718   14.4739    7.4095 C   0  0  0  0  0  0  0  0  0  0  0  0
   23.8391   14.1432    6.0991 C   0  0  0  0  0  0  0  0  0  0  0  0
   23.6730   15.1198    5.1130 C   0  0  0  0  0  0  0  0  0  0  0  0
   23.1618   16.3761    5.4281 C   0  0  0  0  0  0  0  0  0  0  0  0
   22.7992   16.6884    6.7435 C   0  0  0  0  0  0  0  0  0  0  0  0
   22.9533   15.7216    7.7583 C   0  0  0  0  0  0  0  0  0  0  0  0
   23.8696   12.7753    8.6074 H   0  0  0  0  0  0  0  0  0  0  0  0
   22.1031   16.8032    9.9957 C   0  0  0  0  0  0  0  0  0  0  0  0
   19.7163   16.4941    9.2942 N   0  0  0  0  0  0  0  0  0  0  0  0
   20.8362   17.4313    9.3966 C   0  0  0  0  0  0  0  0  0  0  0  0
   18.9033   16.9776    8.9169 H   0  0  0  0  0  0  0  0  0  0  0  0
   19.4572   16.1629   10.2212 H   0  0  0  0  0  0  0  0  0  0  0  0
 12 13  1  0
 13 11  1  0
 11  1  1  0
  1  2  2  0
  2  3  1  0
  3  4  1  0
  4  5  2  0
  5  6  1  0
  6  7  2  0
  7  8  1  0
  8  9  2  0
  9  1  1  0
  9  4  1  0
 12 14  1  0
 12 15  1  0
  3 10  1  0
M  END
> <minimizedAffinity>
-5.79211

> <CNNscore>
0.6528031826

> <CNNaffinity>
4.6977410316

> <CNN_VS>
3.0667002201

> <CNNaffinity_variance>
0.0429452769

$$$$
Tryptamine_like


 15 16  0  0  0  0  0  0  0  0999 V2000
   18.8134   20.0152   10.1328 C   0  0  0  0  0  0  0  0  0  0  0  0
   18.3157   19.0571   10.9967 C   0  0  0  0  0  0  0  0  0  0  0  0
   19.0017   17.8914   10.7894 N   0  0  0  0  0  0  0  0  0  0  0  0
   19.9385   18.0589    9.7978 C   0  0  0  0  0  0  0  0  0  0  0  0
   20.8509   17.1453    9.2555 C   0  0  0  0  0  0  0  0  0  0  0  0
   21.7009   17.6008    8.2437 C   0  0  0  0  0  0  0  0  0  0  0  0
   21.6399   18.9178    7.7959 C   0  0  0  0  0  0  0  0  0  0  0  0
   20.7206   19.8167    8.3493 C   0  0  0  0  0  0  0  0  0  0  0  0
   19.8488   19.3840    9.3696 C   0  0  0  0  0  0  0  0  0  0  0  0
   18.8454   17.0265   11.2871 H   0  0  0  0  0  0  0  0  0  0  0  0
   18.3343   21.4303   10.0155 C   0  0  0  0  0  0  0  0  0  0  0  0
   18.6001   23.7865   10.8295 N   0  0  0  0  0  0  0  0  0  0  0  0
   18.9260   22.3794   11.0681 C   0  0  0  0  0  0  0  0  0  0  0  0
   18.9969   24.3570   11.5738 H   0  0  0  0  0  0  0  0  0  0  0  0
   17.5913   23.9181   10.8645 H   0  0  0  0  0  0  0  0  0  0  0  0
 12 13  1  0
 13 11  1  0
 11  1  1  0
  1  2  2  0
  2  3  1  0
  3  4  1  0
  4  5  2  0
  5  6  1  0
  6  7  2  0
  7  8  1  0
  8  9  2  0
  9  1  1  0
  9  4  1  0
 12 14  1  0
 12 15  1  0
  3 10  1  0
M  END
> <minimizedAffinity>
-5.04533

> <CNNscore>
0.5308124423

> <CNNaffinity>
4.1618080139

> <CNN_VS>
2.2091395855

> <CNNaffinity_variance>
0.4598344266

$$$$
Tryptamine_like


 15 16  0  0  0  0  0  0  0  0999 V2000
   23.3886   14.8043    6.8543 C   0  0  0  0  0  0  0  0  0  0  0  0
   22.6180   15.2630    5.8018 C   0  0  0  0  0  0  0  0  0  0  0  0
   21.7133   16.1656    6.2909 N   0  0  0  0  0  0  0  0  0  0  0  0
   21.8660   16.3057    7.6495 C   0  0  0  0  0  0  0  0  0  0  0  0
   21.1621   17.1057    8.5584 C   0  0  0  0  0  0  0  0  0  0  0  0
   21.5431   17.0495    9.9020 C   0  0  0  0  0  0  0  0  0  0  0  0
   22.5874   16.2271   10.3167 C   0  0  0  0  0  0  0  0  0  0  0  0
   23.2790   15.4337    9.3939 C   0  0  0  0  0  0  0  0  0  0  0  0
   22.9144   15.4681    8.0322 C   0  0  0  0  0  0  0  0  0  0  0  0
   21.0261   16.6594    5.7395 H   0  0  0  0  0  0  0  0  0  0  0  0
   24.4888   13.7907    6.7649 C   0  0  0  0  0  0  0  0  0  0  0  0
   26.1481   13.5872    8.6331 N   0  0  0  0  0  0  0  0  0  0  0  0
   24.8543   13.1453    8.1098 C   0  0  0  0  0  0  0  0  0  0  0  0
   26.3173   13.1456    9.5350 H   0  0  0  0  0  0  0  0  0  0  0  0
   26.1297   14.5917    8.7965 H   0  0  0  0  0  0  0  0  0  0  0  0
 12 13  1  0
 13 11  1  0
 11  1  1  0
  1  2  2  0
  2  3  1  0
  3  4  1  0
  4  5  2  0
  5  6  1  0
  6  7  2  0
  7  8  1  0
  8  9  2  0
  9  1  1  0
  9  4  1  0
 12 14  1  0
 12 15  1  0
  3 10  1  0
M  END
> <minimizedAffinity>
-6.15174

> <CNNscore>
0.4975753725

> <CNNaffinity>
4.4283561707

> <CNN_VS>
2.2034409046

> <CNNaffinity_variance>
0.0882270932

$$$$
Tryptamine_like


 15 16  0  0  0  0  0  0  0  0999 V2000
   23.9582   14.0224    7.6966 C   0  0  0  0  0  0  0  0  0  0  0  0
   24.5237   13.4676    6.5633 C   0  0  0  0  0  0  0  0  0  0  0  0
   24.2754   14.2997    5.5058 N   0  0  0  0  0  0  0  0  0  0  0  0
   23.5482   15.3908    5.9176 C   0  0  0  0  0  0  0  0  0  0  0  0
   23.0676   16.4832    5.1848 C   0  0  0  0  0  0  0  0  0  0  0  0
   22.3508   17.4634    5.8768 C   0  0  0  0  0  0  0  0  0  0  0  0
   22.1269   17.3538    7.2467 C   0  0  0  0  0  0  0  0  0  0  0  0
   22.6141   16.2541    7.9627 C   0  0  0  0  0  0  0  0  0  0  0  0
   23.3384   15.2486    7.2899 C   0  0  0  0  0  0  0  0  0  0  0  0
   24.5765   14.1401    4.5550 H   0  0  0  0  0  0  0  0  0  0  0  0
   23.9799   13.4298    9.0729 C   0  0  0  0  0  0  0  0  0  0  0  0
   26.3861   13.5094    9.7717 N   0  0  0  0  0  0  0  0  0  0  0  0
   25.2623   12.6494    9.3968 C   0  0  0  0  0  0  0  0  0  0  0  0
   27.1934   12.9319    9.9994 H   0  0  0  0  0  0  0  0  0  0  0  0
   26.1538   14.0344   10.6123 H   0  0  0  0  0  0  0  0  0  0  0  0
 12 13  1  0
 13 11  1  0
 11  1  1  0
  1  2  2  0
  2  3  1  0
  3  4  1  0
  4  5  2  0
  5  6  1  0
  6  7  2  0
  7  8  1  0
  8  9  2  0
  9  1  1  0
  9  4  1  0
 12 14  1  0
 12 15  1  0
  3 10  1  0
M  END
> <minimizedAffinity>
-6.73212

> <CNNscore>
0.4363960922

> <CNNaffinity>
4.0740666389

> <CNN_VS>
1.7779067755

> <CNNaffinity_variance>
0.7079738975

$$$$
Tryptamine_like


 15 16  0  0  0  0  0  0  0  0999 V2000
   22.7851   15.7309    7.3391 C   0  0  0  0  0  0  0  0  0  0  0  0
   22.3192   16.2789    8.5200 C   0  0  0  0  0  0  0  0  0  0  0  0
   22.8438   15.5654    9.5631 N   0  0  0  0  0  0  0  0  0  0  0  0
   23.6417   14.5499    9.0931 C   0  0  0  0  0  0  0  0  0  0  0  0
   24.3676   13.5766    9.7911 C   0  0  0  0  0  0  0  0  0  0  0  0
   25.1071   12.6574    9.0415 C   0  0  0  0  0  0  0  0  0  0  0  0
   25.1198   12.7131    7.6502 C   0  0  0  0  0  0  0  0  0  0  0  0
   24.3872   13.6926    6.9696 C   0  0  0  0  0  0  0  0  0  0  0  0
   23.6299   14.6313    7.7001 C   0  0  0  0  0  0  0  0  0  0  0  0
   22.6712   15.7500   10.5410 H   0  0  0  0  0  0  0  0  0  0  0  0
   22.4436   16.1967    5.9562 C   0  0  0  0  0  0  0  0  0  0  0  0
   22.8448   14.4386    4.2147 N   0  0  0  0  0  0  0  0  0  0  0  0
   23.3693   15.6414    4.8637 C   0  0  0  0  0  0  0  0  0  0  0  0
   23.4895   14.1387    3.4856 H   0  0  0  0  0  0  0  0  0  0  0  0
   21.9610   14.6509    3.7564 H   0  0  0  0  0  0  0  0  0  0  0  0
 12 13  1  0
 13 11  1  0
 11  1  1  0
  1  2  2  0
  2  3  1  0
  3  4  1  0
  4  5  2  0
  5  6  1  0
  6  7  2  0
  7  8  1  0
  8  9  2  0
  9  1  1  0
  9  4  1  0
 12 14  1  0
 12 15  1  0
  3 10  1  0
M  END
> <minimizedAffinity>
-6.10398

> <CNNscore>
0.3918966055

> <CNNaffinity>
4.0666813850

> <CNN_VS>
1.5937186480

> <CNNaffinity_variance>
0.5355591774

$$$$
MET_like


 17 18  0  0  0  0  0  0  0  0999 V2000
   22.9922   15.6940    6.4239 C   0  0  0  0  0  0  0  0  0  0  0  0
   23.2025   15.2758    5.1245 C   0  0  0  0  0  0  0  0  0  0  0  0
   23.9041   14.0990    5.1591 N   0  0  0  0  0  0  0  0  0  0  0  0
   24.1463   13.7312    6.4614 C   0  0  0  0  0  0  0  0  0  0  0  0
   24.8137   12.6099    6.9677 C   0  0  0  0  0  0  0  0  0  0  0  0
   24.9258   12.4942    8.3555 C   0  0  0  0  0  0  0  0  0  0  0  0
   24.3941   13.4642    9.2007 C   0  0  0  0  0  0  0  0  0  0  0  0
   23.7292   14.5800    8.6780 C   0  0  0  0  0  0  0  0  0  0  0  0
   23.5978   14.7181    7.2802 C   0  0  0  0  0  0  0  0  0  0  0  0
   24.2082   13.5716    4.3506 H   0  0  0  0  0  0  0  0  0  0  0  0
   22.2626   16.9238    6.8501 C   0  0  0  0  0  0  0  0  0  0  0  0
   21.7800   16.8067    8.2986 C   0  0  0  0  0  0  0  0  0  0  0  0
   20.6891   17.8179    8.6252 N   0  0  0  0  0  0  0  0  0  0  0  0
   21.2029   19.2296    8.4859 C   0  0  0  0  0  0  0  0  0  0  0  0
   19.9847   17.7175    7.8817 H   0  0  0  0  0  0  0  0  0  0  0  0
   18.9396   16.4540    9.8377 C   0  0  0  0  0  0  0  0  0  0  0  0
   19.9377   17.5935    9.9203 C   0  0  0  0  0  0  0  0  0  0  0  0
 16 17  1  0
 17 13  1  0
 13 14  1  0
 13 12  1  0
 12 11  1  0
 11  1  1  0
  1  2  2  0
  2  3  1  0
  3  4  1  0
  4  5  2  0
  5  6  1  0
  6  7  2  0
  7  8  1  0
  8  9  2  0
  9  1  1  0
  9  4  1  0
 13 15  1  0
  3 10  1  0
M  CHG 1  13   1
M  END
> <minimizedAffinity>
-7.09521

> <CNNscore>
0.9460749030

> <CNNaffinity>
5.6746125221

> <CNN_VS>
5.3686084747

> <CNNaffinity_variance>
0.3318026960

$$$$
MET_like


 17 18  0  0  0  0  0  0  0  0999 V2000
   22.5455   16.1223    7.8351 C   0  0  0  0  0  0  0  0  0  0  0  0
   22.5131   16.5893    6.5357 C   0  0  0  0  0  0  0  0  0  0  0  0
   23.2129   15.7145    5.7462 N   0  0  0  0  0  0  0  0  0  0  0  0
   23.6931   14.6735    6.5049 C   0  0  0  0  0  0  0  0  0  0  0  0
   24.4464   13.5575    6.1224 C   0  0  0  0  0  0  0  0  0  0  0  0
   24.8138   12.6508    7.1198 C   0  0  0  0  0  0  0  0  0  0  0  0
   24.4445   12.8561    8.4462 C   0  0  0  0  0  0  0  0  0  0  0  0
   23.6906   13.9777    8.8122 C   0  0  0  0  0  0  0  0  0  0  0  0
   23.3023   14.9060    7.8233 C   0  0  0  0  0  0  0  0  0  0  0  0
   23.3638   15.8127    4.7503 H   0  0  0  0  0  0  0  0  0  0  0  0
   21.9032   16.7612    9.0208 C   0  0  0  0  0  0  0  0  0  0  0  0
   21.3166   18.1294    8.6619 C   0  0  0  0  0  0  0  0  0  0  0  0
   19.9116   18.3171    9.2189 N   0  0  0  0  0  0  0  0  0  0  0  0
   19.6339   19.7727    9.5026 C   0  0  0  0  0  0  0  0  0  0  0  0
   19.2725   18.0699    8.4512 H   0  0  0  0  0  0  0  0  0  0  0  0
   18.6271   16.2642    9.9446 C   0  0  0  0  0  0  0  0  0  0  0  0
   19.5237   17.4121   10.3690 C   0  0  0  0  0  0  0  0  0  0  0  0
 16 17  1  0
 17 13  1  0
 13 14  1  0
 13 12  1  0
 12 11  1  0
 11  1  1  0
  1  2  2  0
  2  3  1  0
  3  4  1  0
  4  5  2  0
  5  6  1  0
  6  7  2  0
  7  8  1  0
  8  9  2  0
  9  1  1  0
  9  4  1  0
 13 15  1  0
  3 10  1  0
M  CHG 1  13   1
M  END
> <minimizedAffinity>
-6.76489

> <CNNscore>
0.9039243460

> <CNNaffinity>
5.4788093567

> <CNN_VS>
4.9524292946

> <CNNaffinity_variance>
0.0616873764

$$$$
MET_like


 17 18  0  0  0  0  0  0  0  0999 V2000
   23.3779   15.8203    5.8746 C   0  0  0  0  0  0  0  0  0  0  0  0
   23.4508   15.1228    4.6848 C   0  0  0  0  0  0  0  0  0  0  0  0
   23.9808   13.8855    4.9428 N   0  0  0  0  0  0  0  0  0  0  0  0
   24.2448   13.7550    6.2857 C   0  0  0  0  0  0  0  0  0  0  0  0
   24.7764   12.6714    6.9944 C   0  0  0  0  0  0  0  0  0  0  0  0
   24.9523   12.8216    8.3722 C   0  0  0  0  0  0  0  0  0  0  0  0
   24.6127   14.0102    9.0125 C   0  0  0  0  0  0  0  0  0  0  0  0
   24.0818   15.0848    8.2889 C   0  0  0  0  0  0  0  0  0  0  0  0
   23.8894   14.9570    6.8972 C   0  0  0  0  0  0  0  0  0  0  0  0
   24.1598   13.1668    4.2531 H   0  0  0  0  0  0  0  0  0  0  0  0
   22.8546   17.2057    6.0570 C   0  0  0  0  0  0  0  0  0  0  0  0
   22.0451   17.3254    7.3513 C   0  0  0  0  0  0  0  0  0  0  0  0
   21.4312   18.7089    7.5202 N   0  0  0  0  0  0  0  0  0  0  0  0
   22.1668   19.7305    6.6888 C   0  0  0  0  0  0  0  0  0  0  0  0
   20.4936   18.6506    7.1002 H   0  0  0  0  0  0  0  0  0  0  0  0
   19.8497   19.8226    9.1479 C   0  0  0  0  0  0  0  0  0  0  0  0
   21.2031   19.1679    8.9448 C   0  0  0  0  0  0  0  0  0  0  0  0
 16 17  1  0
 17 13  1  0
 13 14  1  0
 13 12  1  0
 12 11  1  0
 11  1  1  0
  1  2  2  0
  2  3  1  0
  3  4  1  0
  4  5  2  0
  5  6  1  0
  6  7  2  0
  7  8  1  0
  8  9  2  0
  9  1  1  0
  9  4  1  0
 13 15  1  0
  3 10  1  0
M  CHG 1  13   1
M  END
> <minimizedAffinity>
-7.34852

> <CNNscore>
0.9004826546

> <CNNaffinity>
6.0147347450

> <CNN_VS>
5.4161643982

> <CNNaffinity_variance>
0.3256389201

$$$$
MET_like


 17 18  0  0  0  0  0  0  0  0999 V2000
   22.2468   15.9820    7.7233 C   0  0  0  0  0  0  0  0  0  0  0  0
   22.1684   16.4235    6.4169 C   0  0  0  0  0  0  0  0  0  0  0  0
   22.9631   15.6194    5.6422 N   0  0  0  0  0  0  0  0  0  0  0  0
   23.5518   14.6486    6.4175 C   0  0  0  0  0  0  0  0  0  0  0  0
   24.4245   13.6167    6.0535 C   0  0  0  0  0  0  0  0  0  0  0  0
   24.8854   12.7705    7.0652 C   0  0  0  0  0  0  0  0  0  0  0  0
   24.4905   12.9535    8.3876 C   0  0  0  0  0  0  0  0  0  0  0  0
   23.6166   13.9907    8.7350 C   0  0  0  0  0  0  0  0  0  0  0  0
   23.1327   14.8561    7.7314 C   0  0  0  0  0  0  0  0  0  0  0  0
   23.1062   15.7190    4.6453 H   0  0  0  0  0  0  0  0  0  0  0  0
   21.5336   16.5637    8.8978 C   0  0  0  0  0  0  0  0  0  0  0  0
   21.3504   18.0759    8.7402 C   0  0  0  0  0  0  0  0  0  0  0  0
   20.3266   18.6364    9.7185 N   0  0  0  0  0  0  0  0  0  0  0  0
   19.3039   17.5903   10.0874 C   0  0  0  0  0  0  0  0  0  0  0  0
   20.8444   18.8196   10.5888 H   0  0  0  0  0  0  0  0  0  0  0  0
   18.4111   20.2435   10.0915 C   0  0  0  0  0  0  0  0  0  0  0  0
   19.6988   19.9613    9.3407 C   0  0  0  0  0  0  0  0  0  0  0  0
 16 17  1  0
 17 13  1  0
 13 14  1  0
 13 12  1  0
 12 11  1  0
 11  1  1  0
  1  2  2  0
  2  3  1  0
  3  4  1  0
  4  5  2  0
  5  6  1  0
  6  7  2  0
  7  8  1  0
  8  9  2  0
  9  1  1  0
  9  4  1  0
 13 15  1  0
  3 10  1  0
M  CHG 1  13   1
M  END
> <minimizedAffinity>
-6.59232

> <CNNscore>
0.8858601451

> <CNNaffinity>
5.5972495079

> <CNN_VS>
4.9583802223

> <CNNaffinity_variance>
0.0735850409

$$$$
MET_like


 17 18  0  0  0  0  0  0  0  0999 V2000
   22.4373   15.9114    7.4767 C   0  0  0  0  0  0  0  0  0  0  0  0
   22.1767   16.1128    8.8180 C   0  0  0  0  0  0  0  0  0  0  0  0
   22.8495   15.1583    9.5354 N   0  0  0  0  0  0  0  0  0  0  0  0
   23.5583   14.3414    8.6867 C   0  0  0  0  0  0  0  0  0  0  0  0
   24.3863   13.2504    8.9752 C   0  0  0  0  0  0  0  0  0  0  0  0
   24.9789   12.5843    7.8996 C   0  0  0  0  0  0  0  0  0  0  0  0
   24.7483   12.9928    6.5888 C   0  0  0  0  0  0  0  0  0  0  0  0
   23.9175   14.0865    6.3174 C   0  0  0  0  0  0  0  0  0  0  0  0
   23.3108   14.7796    7.3861 C   0  0  0  0  0  0  0  0  0  0  0  0
   22.8312   15.0577   10.5423 H   0  0  0  0  0  0  0  0  0  0  0  0
   21.9146   16.7273    6.3420 C   0  0  0  0  0  0  0  0  0  0  0  0
   22.4512   18.1604    6.3979 C   0  0  0  0  0  0  0  0  0  0  0  0
   21.3975   19.1512    6.8748 N   0  0  0  0  0  0  0  0  0  0  0  0
   21.3906   20.3885    6.0116 C   0  0  0  0  0  0  0  0  0  0  0  0
   20.4900   18.6992    6.6978 H   0  0  0  0  0  0  0  0  0  0  0  0
   20.0193   19.7598    8.9050 C   0  0  0  0  0  0  0  0  0  0  0  0
   21.4031   19.4699    8.3549 C   0  0  0  0  0  0  0  0  0  0  0  0
 16 17  1  0
 17 13  1  0
 13 14  1  0
 13 12  1  0
 12 11  1  0
 11  1  1  0
  1  2  2  0
  2  3  1  0
  3  4  1  0
  4  5  2  0
  5  6  1  0
  6  7  2  0
  7  8  1  0
  8  9  2  0
  9  1  1  0
  9  4  1  0
 13 15  1  0
  3 10  1  0
M  CHG 1  13   1
M  END
> <minimizedAffinity>
-6.57858

> <CNNscore>
0.8784849048

> <CNNaffinity>
6.1923713684

> <CNN_VS>
5.4399046898

> <CNNaffinity_variance>
0.1174899042

$$$$
MET_like


 17 18  0  0  0  0  0  0  0  0999 V2000
   22.3505   15.9922    8.7038 C   0  0  0  0  0  0  0  0  0  0  0  0
   22.5841   15.3458    9.9018 C   0  0  0  0  0  0  0  0  0  0  0  0
   23.3504   14.2376    9.6507 N   0  0  0  0  0  0  0  0  0  0  0  0
   23.6344   14.1536    8.3081 C   0  0  0  0  0  0  0  0  0  0  0  0
   24.3849   13.2022    7.6077 C   0  0  0  0  0  0  0  0  0  0  0  0
   24.5001   13.3581    6.2241 C   0  0  0  0  0  0  0  0  0  0  0  0
   23.8854   14.4218    5.5693 C   0  0  0  0  0  0  0  0  0  0  0  0
   23.1382   15.3652    6.2849 C   0  0  0  0  0  0  0  0  0  0  0  0
   23.0106   15.2334    7.6837 C   0  0  0  0  0  0  0  0  0  0  0  0
   23.6636   13.5698   10.3436 H   0  0  0  0  0  0  0  0  0  0  0  0
   21.5676   17.2484    8.5148 C   0  0  0  0  0  0  0  0  0  0  0  0
   20.3833   17.3132    9.4834 C   0  0  0  0  0  0  0  0  0  0  0  0
   19.5890   18.6042    9.3356 N   0  0  0  0  0  0  0  0  0  0  0  0
   20.4617   19.7172    8.8104 C   0  0  0  0  0  0  0  0  0  0  0  0
   18.9061   18.4267    8.5865 H   0  0  0  0  0  0  0  0  0  0  0  0
   18.1161   20.3822   10.3652 C   0  0  0  0  0  0  0  0  0  0  0  0
   18.7661   19.0221   10.5357 C   0  0  0  0  0  0  0  0  0  0  0  0
 16 17  1  0
 17 13  1  0
 13 14  1  0
 13 12  1  0
 12 11  1  0
 11  1  1  0
  1  2  2  0
  2  3  1  0
  3  4  1  0
  4  5  2  0
  5  6  1  0
  6  7  2  0
  7  8  1  0
  8  9  2  0
  9  1  1  0
  9  4  1  0
 13 15  1  0
  3 10  1  0
M  CHG 1  13   1
M  END
> <minimizedAffinity>
-6.49537

> <CNNscore>
0.8498275280

> <CNNaffinity>
5.8026714325

> <CNN_VS>
4.9312701225

> <CNNaffinity_variance>
0.0482268929

$$$$
MET_like


 17 18  0  0  0  0  0  0  0  0999 V2000
   23.4618   15.6678    5.9828 C   0  0  0  0  0  0  0  0  0  0  0  0
   23.4905   14.9305    4.8153 C   0  0  0  0  0  0  0  0  0  0  0  0
   24.0375   13.7050    5.0933 N   0  0  0  0  0  0  0  0  0  0  0  0
   24.3563   13.6215    6.4281 C   0  0  0  0  0  0  0  0  0  0  0  0
   24.9222   12.5650    7.1509 C   0  0  0  0  0  0  0  0  0  0  0  0
   25.1527   12.7628    8.5145 C   0  0  0  0  0  0  0  0  0  0  0  0
   24.8326   13.9711    9.1275 C   0  0  0  0  0  0  0  0  0  0  0  0
   24.2667   15.0180    8.3900 C   0  0  0  0  0  0  0  0  0  0  0  0
   24.0190   14.8421    7.0123 C   0  0  0  0  0  0  0  0  0  0  0  0
   24.1925   12.9640    4.4216 H   0  0  0  0  0  0  0  0  0  0  0  0
   22.9384   17.0564    6.1391 C   0  0  0  0  0  0  0  0  0  0  0  0
   21.9620   17.1504    7.3150 C   0  0  0  0  0  0  0  0  0  0  0  0
   21.7402   18.5883    7.7651 N   0  0  0  0  0  0  0  0  0  0  0  0
   20.7513   18.6509    8.9029 C   0  0  0  0  0  0  0  0  0  0  0  0
   22.6341   18.8932    8.1736 H   0  0  0  0  0  0  0  0  0  0  0  0
   22.5050   20.6607    6.5357 C   0  0  0  0  0  0  0  0  0  0  0  0
   21.4382   19.5906    6.6713 C   0  0  0  0  0  0  0  0  0  0  0  0
 16 17  1  0
 17 13  1  0
 13 14  1  0
 13 12  1  0
 12 11  1  0
 11  1  1  0
  1  2  2  0
  2  3  1  0
  3  4  1  0
  4  5  2  0
  5  6  1  0
  6  7  2  0
  7  8  1  0
  8  9  2  0
  9  1  1  0
  9  4  1  0
 13 15  1  0
  3 10  1  0
M  CHG 1  13   1
M  END
> <minimizedAffinity>
-7.11340

> <CNNscore>
0.8480721712

> <CNNaffinity>
5.5719952583

> <CNN_VS>
4.7254543304

> <CNNaffinity_variance>
0.0748935714

$$$$
MET_like


 17 18  0  0  0  0  0  0  0  0999 V2000
   22.5817   15.8012    8.4938 C   0  0  0  0  0  0  0  0  0  0  0  0
   22.4968   15.3562    9.7985 C   0  0  0  0  0  0  0  0  0  0  0  0
   23.1589   14.1596    9.8892 N   0  0  0  0  0  0  0  0  0  0  0  0
   23.6885   13.8186    8.6671 C   0  0  0  0  0  0  0  0  0  0  0  0
   24.4422   12.6988    8.2969 C   0  0  0  0  0  0  0  0  0  0  0  0
   24.8442   12.6005    6.9626 C   0  0  0  0  0  0  0  0  0  0  0  0
   24.5018   13.5822    6.0368 C   0  0  0  0  0  0  0  0  0  0  0  0
   23.7474   14.6964    6.4236 C   0  0  0  0  0  0  0  0  0  0  0  0
   23.3331   14.8222    7.7663 C   0  0  0  0  0  0  0  0  0  0  0  0
   23.2479   13.5987   10.7269 H   0  0  0  0  0  0  0  0  0  0  0  0
   22.0074   17.0675    7.9521 C   0  0  0  0  0  0  0  0  0  0  0  0
   21.1582   17.7847    9.0054 C   0  0  0  0  0  0  0  0  0  0  0  0
   20.4955   19.0397    8.4531 N   0  0  0  0  0  0  0  0  0  0  0  0
   21.4046   19.7447    7.4769 C   0  0  0  0  0  0  0  0  0  0  0  0
   19.7027   18.7095    7.8862 H   0  0  0  0  0  0  0  0  0  0  0  0
   18.7458   19.3577   10.2499 C   0  0  0  0  0  0  0  0  0  0  0  0
   19.8918   19.9800    9.4748 C   0  0  0  0  0  0  0  0  0  0  0  0
 16 17  1  0
 17 13  1  0
 13 14  1  0
 13 12  1  0
 12 11  1  0
 11  1  1  0
  1  2  2  0
  2  3  1  0
  3  4  1  0
  4  5  2  0
  5  6  1  0
  6  7  2  0
  7  8  1  0
  8  9  2  0
  9  1  1  0
  9  4  1  0
 13 15  1  0
  3 10  1  0
M  CHG 1  13   1
M  END
> <minimizedAffinity>
-6.69748

> <CNNscore>
0.8304173946

> <CNNaffinity>
6.0002784729

> <CNN_VS>
4.9827356339

> <CNNaffinity_variance>
0.0978933275

$$$$
MET_like


 17 18  0  0  0  0  0  0  0  0999 V2000
   22.4251   15.9854    8.5727 C   0  0  0  0  0  0  0  0  0  0  0  0
   22.4354   15.4940    9.8635 C   0  0  0  0  0  0  0  0  0  0  0  0
   23.1462   14.3223    9.8725 N   0  0  0  0  0  0  0  0  0  0  0  0
   23.6140   14.0435    8.6102 C   0  0  0  0  0  0  0  0  0  0  0  0
   24.3857   12.9674    8.1568 C   0  0  0  0  0  0  0  0  0  0  0  0
   24.7105   12.9296    6.7985 C   0  0  0  0  0  0  0  0  0  0  0  0
   24.2766   13.9274    5.9299 C   0  0  0  0  0  0  0  0  0  0  0  0
   23.5054   14.9973    6.3997 C   0  0  0  0  0  0  0  0  0  0  0  0
   23.1679   15.0617    7.7680 C   0  0  0  0  0  0  0  0  0  0  0  0
   23.3062   13.7377   10.6830 H   0  0  0  0  0  0  0  0  0  0  0  0
   21.7723   17.2453    8.1112 C   0  0  0  0  0  0  0  0  0  0  0  0
   21.3413   18.1118    9.2979 C   0  0  0  0  0  0  0  0  0  0  0  0
   19.8606   18.4642    9.2453 N   0  0  0  0  0  0  0  0  0  0  0  0
   19.6611   19.9595    9.2617 C   0  0  0  0  0  0  0  0  0  0  0  0
   19.5357   18.1635    8.3163 H   0  0  0  0  0  0  0  0  0  0  0  0
   18.7870   16.2731    9.9069 C   0  0  0  0  0  0  0  0  0  0  0  0
   18.9679   17.7436   10.2333 C   0  0  0  0  0  0  0  0  0  0  0  0
 16 17  1  0
 17 13  1  0
 13 14  1  0
 13 12  1  0
 12 11  1  0
 11  1  1  0
  1  2  2  0
  2  3  1  0
  3  4  1  0
  4  5  2  0
  5  6  1  0
  6  7  2  0
  7  8  1  0
  8  9  2  0
  9  1  1  0
  9  4  1  0
 13 15  1  0
  3 10  1  0
M  CHG 1  13   1
M  END
> <minimizedAffinity>
-6.72178

> <CNNscore>
0.8097165227

> <CNNaffinity>
5.6653428078

> <CNN_VS>
4.5873217583

> <CNNaffinity_variance>
0.0128788399

$$$$
MET_like


 17 18  0  0  0  0  0  0  0  0999 V2000
   22.9433   15.4248    8.9404 C   0  0  0  0  0  0  0  0  0  0  0  0
   23.3046   14.2554    9.5805 C   0  0  0  0  0  0  0  0  0  0  0  0
   23.8283   13.3983    8.6482 N   0  0  0  0  0  0  0  0  0  0  0  0
   23.8286   13.9917    7.4080 C   0  0  0  0  0  0  0  0  0  0  0  0
   24.2735   13.4967    6.1767 C   0  0  0  0  0  0  0  0  0  0  0  0
   24.1390   14.3238    5.0588 C   0  0  0  0  0  0  0  0  0  0  0  0
   23.5784   15.5932    5.1700 C   0  0  0  0  0  0  0  0  0  0  0  0
   23.1386   16.0735    6.4094 C   0  0  0  0  0  0  0  0  0  0  0  0
   23.2677   15.2601    7.5548 C   0  0  0  0  0  0  0  0  0  0  0  0
   24.1648   12.4620    8.8334 H   0  0  0  0  0  0  0  0  0  0  0  0
   22.3403   16.6318    9.5775 C   0  0  0  0  0  0  0  0  0  0  0  0
   21.1897   17.1866    8.7329 C   0  0  0  0  0  0  0  0  0  0  0  0
   21.3902   18.6547    8.3810 N   0  0  0  0  0  0  0  0  0  0  0  0
   20.2730   19.5008    8.9397 C   0  0  0  0  0  0  0  0  0  0  0  0
   22.2306   18.9520    8.8951 H   0  0  0  0  0  0  0  0  0  0  0  0
   22.3096   20.3243    6.7201 C   0  0  0  0  0  0  0  0  0  0  0  0
   21.6833   18.9581    6.9269 C   0  0  0  0  0  0  0  0  0  0  0  0
 16 17  1  0
 17 13  1  0
 13 14  1  0
 13 12  1  0
 12 11  1  0
 11  1  1  0
  1  2  2  0
  2  3  1  0
  3  4  1  0
  4  5  2  0
  5  6  1  0
  6  7  2  0
  7  8  1  0
  8  9  2  0
  9  1  1  0
  9  4  1  0
 13 15  1  0
  3 10  1  0
M  CHG 1  13   1
M  END
> <minimizedAffinity>
-6.43048

> <CNNscore>
0.8094481826

> <CNNaffinity>
5.7832736969

> <CNN_VS>
4.6812605858

> <CNNaffinity_variance>
0.0921558738

$$$$
MET_like


 17 18  0  0  0  0  0  0  0  0999 V2000
   22.6775   15.8345    8.2479 C   0  0  0  0  0  0  0  0  0  0  0  0
   22.5020   16.3518    6.9793 C   0  0  0  0  0  0  0  0  0  0  0  0
   23.1358   15.5274    6.0866 N   0  0  0  0  0  0  0  0  0  0  0  0
   23.7137   14.4697    6.7481 C   0  0  0  0  0  0  0  0  0  0  0  0
   24.4476   13.3895    6.2444 C   0  0  0  0  0  0  0  0  0  0  0  0
   24.9348   12.4537    7.1602 C   0  0  0  0  0  0  0  0  0  0  0  0
   24.6990   12.5965    8.5247 C   0  0  0  0  0  0  0  0  0  0  0  0
   23.9626   13.6829    9.0123 C   0  0  0  0  0  0  0  0  0  0  0  0
   23.4551   14.6395    8.1080 C   0  0  0  0  0  0  0  0  0  0  0  0
   23.1817   15.6688    5.0856 H   0  0  0  0  0  0  0  0  0  0  0  0
   22.1465   16.4090    9.5185 C   0  0  0  0  0  0  0  0  0  0  0  0
   20.9376   17.3112    9.2550 C   0  0  0  0  0  0  0  0  0  0  0  0
   21.2867   18.7892    9.3698 N   0  0  0  0  0  0  0  0  0  0  0  0
   20.9324   19.3225   10.7359 C   0  0  0  0  0  0  0  0  0  0  0  0
   22.3137   18.8370    9.3246 H   0  0  0  0  0  0  0  0  0  0  0  0
   21.8149   19.8528    7.1381 C   0  0  0  0  0  0  0  0  0  0  0  0
   20.7955   19.6797    8.2482 C   0  0  0  0  0  0  0  0  0  0  0  0
 16 17  1  0
 17 13  1  0
 13 14  1  0
 13 12  1  0
 12 11  1  0
 11  1  1  0
  1  2  2  0
  2  3  1  0
  3  4  1  0
  4  5  2  0
  5  6  1  0
  6  7  2  0
  7  8  1  0
  8  9  2  0
  9  1  1  0
  9  4  1  0
 13 15  1  0
  3 10  1  0
M  CHG 1  13   1
M  END
> <minimizedAffinity>
-6.73880

> <CNNscore>
0.8021200895

> <CNNaffinity>
5.6514859200

> <CNN_VS>
4.5331702232

> <CNNaffinity_variance>
0.0918313041

$$$$
MET_like


 17 18  0  0  0  0  0  0  0  0999 V2000
   22.5818   15.8371    8.4163 C   0  0  0  0  0  0  0  0  0  0  0  0
   22.4911   15.4395    9.7359 C   0  0  0  0  0  0  0  0  0  0  0  0
   23.1462   14.2433    9.8712 N   0  0  0  0  0  0  0  0  0  0  0  0
   23.6769   13.8558    8.6635 C   0  0  0  0  0  0  0  0  0  0  0  0
   24.4252   12.7193    8.3356 C   0  0  0  0  0  0  0  0  0  0  0  0
   24.8299   12.5711    7.0067 C   0  0  0  0  0  0  0  0  0  0  0  0
   24.4954   13.5209    6.0455 C   0  0  0  0  0  0  0  0  0  0  0  0
   23.7464   14.6525    6.3901 C   0  0  0  0  0  0  0  0  0  0  0  0
   23.3295   14.8285    7.7264 C   0  0  0  0  0  0  0  0  0  0  0  0
   23.2299   13.7122   10.7286 H   0  0  0  0  0  0  0  0  0  0  0  0
   22.0160   17.0864    7.8282 C   0  0  0  0  0  0  0  0  0  0  0  0
   21.2017   17.8661    8.8645 C   0  0  0  0  0  0  0  0  0  0  0  0
   21.0945   19.3452    8.5176 N   0  0  0  0  0  0  0  0  0  0  0  0
   19.9127   19.9774    9.2103 C   0  0  0  0  0  0  0  0  0  0  0  0
   21.9197   19.7910    8.9410 H   0  0  0  0  0  0  0  0  0  0  0  0
   22.4350   20.4304    6.6693 C   0  0  0  0  0  0  0  0  0  0  0  0
   21.1645   19.6917    7.0454 C   0  0  0  0  0  0  0  0  0  0  0  0
 16 17  1  0
 17 13  1  0
 13 14  1  0
 13 12  1  0
 12 11  1  0
 11  1  1  0
  1  2  2  0
  2  3  1  0
  3  4  1  0
  4  5  2  0
  5  6  1  0
  6  7  2  0
  7  8  1  0
  8  9  2  0
  9  1  1  0
  9  4  1  0
 13 15  1  0
  3 10  1  0
M  CHG 1  13   1
M  END
> <minimizedAffinity>
-6.92253

> <CNNscore>
0.7732834816

> <CNNaffinity>
5.7727017403

> <CNN_VS>
4.4639348984

> <CNNaffinity_variance>
0.0559205301

$$$$
MET_like


 17 18  0  0  0  0  0  0  0  0999 V2000
   22.3015   15.3182    8.8885 C   0  0  0  0  0  0  0  0  0  0  0  0
   22.6280   14.8716   10.1540 C   0  0  0  0  0  0  0  0  0  0  0  0
   23.6443   13.9593   10.0398 N   0  0  0  0  0  0  0  0  0  0  0  0
   23.9991   13.8098    8.7199 C   0  0  0  0  0  0  0  0  0  0  0  0
   24.9831   12.9995    8.1417 C   0  0  0  0  0  0  0  0  0  0  0  0
   25.1191   13.0371    6.7518 C   0  0  0  0  0  0  0  0  0  0  0  0
   24.3004   13.8506    5.9734 C   0  0  0  0  0  0  0  0  0  0  0  0
   23.3209   14.6554    6.5676 C   0  0  0  0  0  0  0  0  0  0  0  0
   23.1664   14.6398    7.9698 C   0  0  0  0  0  0  0  0  0  0  0  0
   24.0753   13.4598   10.8072 H   0  0  0  0  0  0  0  0  0  0  0  0
   21.2536   16.3247    8.5489 C   0  0  0  0  0  0  0  0  0  0  0  0
   21.8553   17.7267    8.4167 C   0  0  0  0  0  0  0  0  0  0  0  0
   21.5205   18.3727    7.0788 N   0  0  0  0  0  0  0  0  0  0  0  0
   22.4513   17.8850    5.9963 C   0  0  0  0  0  0  0  0  0  0  0  0
   20.5947   18.0073    6.8171 H   0  0  0  0  0  0  0  0  0  0  0  0
   22.5772   20.6003    6.5198 C   0  0  0  0  0  0  0  0  0  0  0  0
   21.3681   19.8791    7.0851 C   0  0  0  0  0  0  0  0  0  0  0  0
 16 17  1  0
 17 13  1  0
 13 14  1  0
 13 12  1  0
 12 11  1  0
 11  1  1  0
  1  2  2  0
  2  3  1  0
  3  4  1  0
  4  5  2  0
  5  6  1  0
  6  7  2  0
  7  8  1  0
  8  9  2  0
  9  1  1  0
  9  4  1  0
 13 15  1  0
  3 10  1  0
M  CHG 1  13   1
M  END
> <minimizedAffinity>
-6.07728

> <CNNscore>
0.7388851047

> <CNNaffinity>
5.9167895317

> <CNN_VS>
4.3718276024

> <CNNaffinity_variance>
0.1380691677

$$$$
MET_like


 17 18  0  0  0  0  0  0  0  0999 V2000
   26.3817   28.1524   -6.9270 C   0  0  0  0  0  0  0  0  0  0  0  0
   27.0586   28.6407   -8.0274 C   0  0  0  0  0  0  0  0  0  0  0  0
   27.5107   27.5758   -8.7622 N   0  0  0  0  0  0  0  0  0  0  0  0
   27.1298   26.3959   -8.1683 C   0  0  0  0  0  0  0  0  0  0  0  0
   27.3606   25.0746   -8.5684 C   0  0  0  0  0  0  0  0  0  0  0  0
   26.8620   24.0545   -7.7544 C   0  0  0  0  0  0  0  0  0  0  0  0
   26.1640   24.3466   -6.5859 C   0  0  0  0  0  0  0  0  0  0  0  0
   25.9414   25.6739   -6.1999 C   0  0  0  0  0  0  0  0  0  0  0  0
   26.4301   26.7228   -7.0070 C   0  0  0  0  0  0  0  0  0  0  0  0
   28.0502   27.6372   -9.6163 H   0  0  0  0  0  0  0  0  0  0  0  0
   25.7182   28.9639   -5.8650 C   0  0  0  0  0  0  0  0  0  0  0  0
   25.3160   30.3437   -6.3936 C   0  0  0  0  0  0  0  0  0  0  0  0
   23.8267   30.4310   -6.6997 N   0  0  0  0  0  0  0  0  0  0  0  0
   23.5702   31.3396   -7.8764 C   0  0  0  0  0  0  0  0  0  0  0  0
   23.5538   29.4933   -7.0243 H   0  0  0  0  0  0  0  0  0  0  0  0
   21.5353   31.1833   -5.9416 C   0  0  0  0  0  0  0  0  0  0  0  0
   22.9201   30.7261   -5.5236 C   0  0  0  0  0  0  0  0  0  0  0  0
 16 17  1  0
 17 13  1  0
 13 14  1  0
 13 12  1  0
 12 11  1  0
 11  1  1  0
  1  2  2  0
  2  3  1  0
  3  4  1  0
  4  5  2  0
  5  6  1  0
  6  7  2  0
  7  8  1  0
  8  9  2  0
  9  1  1  0
  9  4  1  0
 13 15  1  0
  3 10  1  0
M  CHG 1  13   1
M  END
> <minimizedAffinity>
-4.69851

> <CNNscore>
0.6949496269

> <CNNaffinity>
4.7384819984

> <CNN_VS>
3.2930061817

> <CNNaffinity_variance>
0.3984521329

$$$$
MET_like


 17 18  0  0  0  0  0  0  0  0999 V2000
   27.3795   27.9554   -8.3198 C   0  0  0  0  0  0  0  0  0  0  0  0
   26.8787   28.7242   -7.2874 C   0  0  0  0  0  0  0  0  0  0  0  0
   26.2952   27.8880   -6.3717 N   0  0  0  0  0  0  0  0  0  0  0  0
   26.4167   26.5810   -6.7804 C   0  0  0  0  0  0  0  0  0  0  0  0
   25.9813   25.4034   -6.1617 C   0  0  0  0  0  0  0  0  0  0  0  0
   26.2317   24.1957   -6.8180 C   0  0  0  0  0  0  0  0  0  0  0  0
   26.8882   24.1698   -8.0453 C   0  0  0  0  0  0  0  0  0  0  0  0
   27.3176   25.3570   -8.6507 C   0  0  0  0  0  0  0  0  0  0  0  0
   27.0816   26.5897   -8.0063 C   0  0  0  0  0  0  0  0  0  0  0  0
   25.8357   28.1793   -5.5183 H   0  0  0  0  0  0  0  0  0  0  0  0
   28.1025   28.4562   -9.5252 C   0  0  0  0  0  0  0  0  0  0  0  0
   27.2682   29.4962  -10.2784 C   0  0  0  0  0  0  0  0  0  0  0  0
   27.6188   29.5521  -11.7593 N   0  0  0  0  0  0  0  0  0  0  0  0
   29.0377   30.0239  -11.9602 C   0  0  0  0  0  0  0  0  0  0  0  0
   27.6158   28.5754  -12.0833 H   0  0  0  0  0  0  0  0  0  0  0  0
   25.2255   30.3003  -12.0806 C   0  0  0  0  0  0  0  0  0  0  0  0
   26.6305   30.2722  -12.6521 C   0  0  0  0  0  0  0  0  0  0  0  0
 16 17  1  0
 17 13  1  0
 13 14  1  0
 13 12  1  0
 12 11  1  0
 11  1  1  0
  1  2  2  0
  2  3  1  0
  3  4  1  0
  4  5  2  0
  5  6  1  0
  6  7  2  0
  7  8  1  0
  8  9  2  0
  9  1  1  0
  9  4  1  0
 13 15  1  0
  3 10  1  0
M  CHG 1  13   1
M  END
> <minimizedAffinity>
-4.91318

> <CNNscore>
0.6684007645

> <CNNaffinity>
4.8754024506

> <CNN_VS>
3.2587227821

> <CNNaffinity_variance>
0.4927518368

$$$$
MET_like


 17 18  0  0  0  0  0  0  0  0999 V2000
   22.9975   15.3276    9.0568 C   0  0  0  0  0  0  0  0  0  0  0  0
   23.4932   14.0823    9.3904 C   0  0  0  0  0  0  0  0  0  0  0  0
   23.9259   13.4698    8.2434 N   0  0  0  0  0  0  0  0  0  0  0  0
   23.7342   14.2988    7.1635 C   0  0  0  0  0  0  0  0  0  0  0  0
   24.0327   14.0944    5.8114 C   0  0  0  0  0  0  0  0  0  0  0  0
   23.7133   15.1176    4.9153 C   0  0  0  0  0  0  0  0  0  0  0  0
   23.1160   16.2954    5.3559 C   0  0  0  0  0  0  0  0  0  0  0  0
   22.8241   16.4841    6.7121 C   0  0  0  0  0  0  0  0  0  0  0  0
   23.1413   15.4684    7.6384 C   0  0  0  0  0  0  0  0  0  0  0  0
   24.3259   12.5418    8.1871 H   0  0  0  0  0  0  0  0  0  0  0  0
   22.4311   16.3357    9.9999 C   0  0  0  0  0  0  0  0  0  0  0  0
   20.9528   16.6021    9.7024 C   0  0  0  0  0  0  0  0  0  0  0  0
   20.4492   17.8703   10.3788 N   0  0  0  0  0  0  0  0  0  0  0  0
   18.9431   17.9458   10.3305 C   0  0  0  0  0  0  0  0  0  0  0  0
   20.6775   17.7631   11.3765 H   0  0  0  0  0  0  0  0  0  0  0  0
   21.1292   19.3545    8.4486 C   0  0  0  0  0  0  0  0  0  0  0  0
   21.1140   19.1623    9.9534 C   0  0  0  0  0  0  0  0  0  0  0  0
 16 17  1  0
 17 13  1  0
 13 14  1  0
 13 12  1  0
 12 11  1  0
 11  1  1  0
  1  2  2  0
  2  3  1  0
  3  4  1  0
  4  5  2  0
  5  6  1  0
  6  7  2  0
  7  8  1  0
  8  9  2  0
  9  1  1  0
  9  4  1  0
 13 15  1  0
  3 10  1  0
M  CHG 1  13   1
M  END
> <minimizedAffinity>
-6.27459

> <CNNscore>
0.6558173299

> <CNNaffinity>
5.2115263939

> <CNN_VS>
3.4178092480

> <CNNaffinity_variance>
0.0949824974

$$$$
MET_like


 17 18  0  0  0  0  0  0  0  0999 V2000
   26.2545   28.2468   -6.8180 C   0  0  0  0  0  0  0  0  0  0  0  0
   26.8876   28.7929   -7.9174 C   0  0  0  0  0  0  0  0  0  0  0  0
   27.3633   27.7682   -8.6933 N   0  0  0  0  0  0  0  0  0  0  0  0
   27.0409   26.5576   -8.1272 C   0  0  0  0  0  0  0  0  0  0  0  0
   27.3128   25.2585   -8.5717 C   0  0  0  0  0  0  0  0  0  0  0  0
   26.8717   24.1965   -7.7784 C   0  0  0  0  0  0  0  0  0  0  0  0
   26.1894   24.4271   -6.5870 C   0  0  0  0  0  0  0  0  0  0  0  0
   25.9252   25.7330   -6.1567 C   0  0  0  0  0  0  0  0  0  0  0  0
   26.3555   26.8232   -6.9420 C   0  0  0  0  0  0  0  0  0  0  0  0
   27.8809   27.8755   -9.5564 H   0  0  0  0  0  0  0  0  0  0  0  0
   25.5845   29.0007   -5.7183 C   0  0  0  0  0  0  0  0  0  0  0  0
   25.2480   30.4301   -6.1527 C   0  0  0  0  0  0  0  0  0  0  0  0
   25.6420   31.4587   -5.1010 N   0  0  0  0  0  0  0  0  0  0  0  0
   26.9052   31.0443   -4.3877 C   0  0  0  0  0  0  0  0  0  0  0  0
   25.8988   32.3071   -5.6238 H   0  0  0  0  0  0  0  0  0  0  0  0
   24.8713   31.5946   -2.6971 C   0  0  0  0  0  0  0  0  0  0  0  0
   24.5473   31.8921   -4.1490 C   0  0  0  0  0  0  0  0  0  0  0  0
 16 17  1  0
 17 13  1  0
 13 14  1  0
 13 12  1  0
 12 11  1  0
 11  1  1  0
  1  2  2  0
  2  3  1  0
  3  4  1  0
  4  5  2  0
  5  6  1  0
  6  7  2  0
  7  8  1  0
  8  9  2  0
  9  1  1  0
  9  4  1  0
 13 15  1  0
  3 10  1  0
M  CHG 1  13   1
M  END
> <minimizedAffinity>
-4.49993

> <CNNscore>
0.6359139085

> <CNNaffinity>
4.6328368187

> <CNN_VS>
2.9460854530

> <CNNaffinity_variance>
0.0629257113

$$$$
MET_like


 17 18  0  0  0  0  0  0  0  0999 V2000
   26.2087   28.2559   -6.8778 C   0  0  0  0  0  0  0  0  0  0  0  0
   26.8329   28.7673   -7.9986 C   0  0  0  0  0  0  0  0  0  0  0  0
   27.3085   27.7191   -8.7426 N   0  0  0  0  0  0  0  0  0  0  0  0
   26.9948   26.5269   -8.1341 C   0  0  0  0  0  0  0  0  0  0  0  0
   27.2698   25.2147   -8.5363 C   0  0  0  0  0  0  0  0  0  0  0  0
   26.8380   24.1781   -7.7051 C   0  0  0  0  0  0  0  0  0  0  0  0
   26.1617   24.4459   -6.5181 C   0  0  0  0  0  0  0  0  0  0  0  0
   25.8943   25.7643   -6.1303 C   0  0  0  0  0  0  0  0  0  0  0  0
   26.3152   26.8293   -6.9544 C   0  0  0  0  0  0  0  0  0  0  0  0
   27.8206   27.7994   -9.6118 H   0  0  0  0  0  0  0  0  0  0  0  0
   25.5418   29.0435   -5.8000 C   0  0  0  0  0  0  0  0  0  0  0  0
   25.6317   30.5468   -6.0772 C   0  0  0  0  0  0  0  0  0  0  0  0
   24.2875   31.1391   -6.4795 N   0  0  0  0  0  0  0  0  0  0  0  0
   23.1658   30.5227   -5.6808 C   0  0  0  0  0  0  0  0  0  0  0  0
   24.3163   32.1234   -6.1804 H   0  0  0  0  0  0  0  0  0  0  0  0
   22.8669   30.2525   -8.3734 C   0  0  0  0  0  0  0  0  0  0  0  0
   23.9947   31.1811   -7.9643 C   0  0  0  0  0  0  0  0  0  0  0  0
 16 17  1  0
 17 13  1  0
 13 14  1  0
 13 12  1  0
 12 11  1  0
 11  1  1  0
  1  2  2  0
  2  3  1  0
  3  4  1  0
  4  5  2  0
  5  6  1  0
  6  7  2  0
  7  8  1  0
  8  9  2  0
  9  1  1  0
  9  4  1  0
 13 15  1  0
  3 10  1  0
M  CHG 1  13   1
M  END
> <minimizedAffinity>
-4.65928

> <CNNscore>
0.5994909406

> <CNNaffinity>
4.4325966835

> <CNN_VS>
2.6573016644

> <CNNaffinity_variance>
0.1182964072

$$$$
MET_like


 17 18  0  0  0  0  0  0  0  0999 V2000
   27.3002   27.9528   -8.2888 C   0  0  0  0  0  0  0  0  0  0  0  0
   26.7451   28.7216   -7.2847 C   0  0  0  0  0  0  0  0  0  0  0  0
   26.1584   27.8821   -6.3740 N   0  0  0  0  0  0  0  0  0  0  0  0
   26.3311   26.5733   -6.7579 C   0  0  0  0  0  0  0  0  0  0  0  0
   25.9118   25.3926   -6.1342 C   0  0  0  0  0  0  0  0  0  0  0  0
   26.2181   24.1833   -6.7631 C   0  0  0  0  0  0  0  0  0  0  0  0
   26.9129   24.1587   -7.9692 C   0  0  0  0  0  0  0  0  0  0  0  0
   27.3256   25.3490   -8.5800 C   0  0  0  0  0  0  0  0  0  0  0  0
   27.0333   26.5836   -7.9629 C   0  0  0  0  0  0  0  0  0  0  0  0
   25.6642   28.1722   -5.5398 H   0  0  0  0  0  0  0  0  0  0  0  0
   28.0453   28.4570   -9.4793 C   0  0  0  0  0  0  0  0  0  0  0  0
   27.2349   29.5168  -10.2310 C   0  0  0  0  0  0  0  0  0  0  0  0
   27.9606   30.8540  -10.3001 N   0  0  0  0  0  0  0  0  0  0  0  0
   28.4343   31.1386  -11.7040 C   0  0  0  0  0  0  0  0  0  0  0  0
   27.2451   31.5692  -10.1115 H   0  0  0  0  0  0  0  0  0  0  0  0
   28.5878   31.9861   -8.1285 C   0  0  0  0  0  0  0  0  0  0  0  0
   29.0378   31.0828   -9.2611 C   0  0  0  0  0  0  0  0  0  0  0  0
 16 17  1  0
 17 13  1  0
 13 14  1  0
 13 12  1  0
 12 11  1  0
 11  1  1  0
  1  2  2  0
  2  3  1  0
  3  4  1  0
  4  5  2  0
  5  6  1  0
  6  7  2  0
  7  8  1  0
  8  9  2  0
  9  1  1  0
  9  4  1  0
 13 15  1  0
  3 10  1  0
M  CHG 1  13   1
M  END
> <minimizedAffinity>
-4.55684

> <CNNscore>
0.5435173512

> <CNNaffinity>
4.5176262856

> <CNN_VS>
2.4554083347

> <CNNaffinity_variance>
0.0530288704

$$$$
MET_like


 17 18  0  0  0  0  0  0  0  0999 V2000
   27.8452   27.4988   -8.5973 C   0  0  0  0  0  0  0  0  0  0  0  0
   28.5500   26.6908   -9.4679 C   0  0  0  0  0  0  0  0  0  0  0  0
   28.2973   25.3837   -9.1424 N   0  0  0  0  0  0  0  0  0  0  0  0
   27.4271   25.3209   -8.0799 C   0  0  0  0  0  0  0  0  0  0  0  0
   26.8909   24.2067   -7.4241 C   0  0  0  0  0  0  0  0  0  0  0  0
   26.0286   24.4398   -6.3498 C   0  0  0  0  0  0  0  0  0  0  0  0
   25.7194   25.7362   -5.9474 C   0  0  0  0  0  0  0  0  0  0  0  0
   26.2642   26.8400   -6.6145 C   0  0  0  0  0  0  0  0  0  0  0  0
   27.1339   26.6320   -7.7057 C   0  0  0  0  0  0  0  0  0  0  0  0
   28.6912   24.5752   -9.6067 H   0  0  0  0  0  0  0  0  0  0  0  0
   27.8235   28.9908   -8.5966 C   0  0  0  0  0  0  0  0  0  0  0  0
   27.7376   29.5434  -10.0222 C   0  0  0  0  0  0  0  0  0  0  0  0
   26.5293   30.4499  -10.2160 N   0  0  0  0  0  0  0  0  0  0  0  0
   25.6424   30.4349   -8.9957 C   0  0  0  0  0  0  0  0  0  0  0  0
   26.9039   31.4074  -10.2599 H   0  0  0  0  0  0  0  0  0  0  0  0
   26.6440   29.9221  -12.6857 C   0  0  0  0  0  0  0  0  0  0  0  0
   25.7559   30.2641  -11.5043 C   0  0  0  0  0  0  0  0  0  0  0  0
 16 17  1  0
 17 13  1  0
 13 14  1  0
 13 12  1  0
 12 11  1  0
 11  1  1  0
  1  2  2  0
  2  3  1  0
  3  4  1  0
  4  5  2  0
  5  6  1  0
  6  7  2  0
  7  8  1  0
  8  9  2  0
  9  1  1  0
  9  4  1  0
 13 15  1  0
  3 10  1  0
M  CHG 1  13   1
M  END
> <minimizedAffinity>
-4.60379

> <CNNscore>
0.4771067500

> <CNNaffinity>
4.4311761856

> <CNN_VS>
2.1141440868

> <CNNaffinity_variance>
0.1883051544

$$$$
MET_like


 16 17  0  0  0  0  0  0  0  0999 V2000
   23.0982   15.5455    6.2400 C   0  0  0  0  0  0  0  0  0  0  0  0
   23.3706   15.0019    4.9993 C   0  0  0  0  0  0  0  0  0  0  0  0
   24.0523   13.8294    5.1836 N   0  0  0  0  0  0  0  0  0  0  0  0
   24.2369   13.5909    6.5250 C   0  0  0  0  0  0  0  0  0  0  0  0
   24.8751   12.5263    7.1730 C   0  0  0  0  0  0  0  0  0  0  0  0
   24.9111   12.5463    8.5703 C   0  0  0  0  0  0  0  0  0  0  0  0
   24.3314   13.5896    9.2880 C   0  0  0  0  0  0  0  0  0  0  0  0
   23.6971   14.6458    8.6238 C   0  0  0  0  0  0  0  0  0  0  0  0
   23.6466   14.6503    7.2145 C   0  0  0  0  0  0  0  0  0  0  0  0
   24.3759   13.2209    4.4451 H   0  0  0  0  0  0  0  0  0  0  0  0
   22.3687   16.8274    6.5097 C   0  0  0  0  0  0  0  0  0  0  0  0
   22.0726   17.0203    8.0077 C   0  0  0  0  0  0  0  0  0  0  0  0
   21.0274   18.0213    8.2952 N   0  0  0  0  0  0  0  0  0  0  0  0
   20.3777   17.7229    9.5723 C   0  0  0  0  0  0  0  0  0  0  0  0
   21.6622   20.0086    6.8300 C   0  0  0  0  0  0  0  0  0  0  0  0
   21.4768   19.4187    8.2251 C   0  0  0  0  0  0  0  0  0  0  0  0
 15 16  1  0
 16 13  1  0
 13 14  1  0
 13 12  1  0
 12 11  1  0
 11  1  1  0
  1  2  2  0
  2  3  1  0
  3  4  1  0
  4  5  2  0
  5  6  1  0
  6  7  2  0
  7  8  1  0
  8  9  2  0
  9  1  1  0
  9  4  1  0
  3 10  1  0
M  END
> <minimizedAffinity>
-6.93467

> <CNNscore>
0.9610549212

> <CNNaffinity>
5.6499404907

> <CNN_VS>
5.4299030304

> <CNNaffinity_variance>
0.2296871543

$$$$
MET_like


 16 17  0  0  0  0  0  0  0  0999 V2000
   23.1174   15.7256    6.5017 C   0  0  0  0  0  0  0  0  0  0  0  0
   23.2949   15.2855    5.2040 C   0  0  0  0  0  0  0  0  0  0  0  0
   23.9298   14.0735    5.2439 N   0  0  0  0  0  0  0  0  0  0  0  0
   24.1768   13.7073    6.5459 C   0  0  0  0  0  0  0  0  0  0  0  0
   24.7990   12.5625    7.0589 C   0  0  0  0  0  0  0  0  0  0  0  0
   24.9131   12.4546    8.4479 C   0  0  0  0  0  0  0  0  0  0  0  0
   24.4237   13.4521    9.2876 C   0  0  0  0  0  0  0  0  0  0  0  0
   23.8041   14.5897    8.7575 C   0  0  0  0  0  0  0  0  0  0  0  0
   23.6761   14.7237    7.3595 C   0  0  0  0  0  0  0  0  0  0  0  0
   24.1832   13.5213    4.4369 H   0  0  0  0  0  0  0  0  0  0  0  0
   22.4650   17.0073    6.9257 C   0  0  0  0  0  0  0  0  0  0  0  0
   21.5468   16.8130    8.1456 C   0  0  0  0  0  0  0  0  0  0  0  0
   21.2959   18.0450    8.9179 N   0  0  0  0  0  0  0  0  0  0  0  0
   21.3650   19.2152    8.0415 C   0  0  0  0  0  0  0  0  0  0  0  0
   19.4010   16.6733    9.9311 C   0  0  0  0  0  0  0  0  0  0  0  0
   20.0610   18.0320    9.7144 C   0  0  0  0  0  0  0  0  0  0  0  0
 15 16  1  0
 16 13  1  0
 13 14  1  0
 13 12  1  0
 12 11  1  0
 11  1  1  0
  1  2  2  0
  2  3  1  0
  3  4  1  0
  4  5  2  0
  5  6  1  0
  6  7  2  0
  7  8  1  0
  8  9  2  0
  9  1  1  0
  9  4  1  0
  3 10  1  0
M  END
> <minimizedAffinity>
-6.85579

> <CNNscore>
0.9570385814

> <CNNaffinity>
5.6400046349

> <CNN_VS>
5.3977022171

> <CNNaffinity_variance>
0.1677136570

$$$$
MET_like


 16 17  0  0  0  0  0  0  0  0999 V2000
   22.7910   15.4071    6.2775 C   0  0  0  0  0  0  0  0  0  0  0  0
   23.2028   14.9494    5.0405 C   0  0  0  0  0  0  0  0  0  0  0  0
   24.0791   13.9158    5.2342 N   0  0  0  0  0  0  0  0  0  0  0  0
   24.2548   13.6852    6.5781 C   0  0  0  0  0  0  0  0  0  0  0  0
   25.0518   12.7396    7.2349 C   0  0  0  0  0  0  0  0  0  0  0  0
   25.0325   12.7349    8.6327 C   0  0  0  0  0  0  0  0  0  0  0  0
   24.2469   13.6398    9.3423 C   0  0  0  0  0  0  0  0  0  0  0  0
   23.4559   14.5781    8.6693 C   0  0  0  0  0  0  0  0  0  0  0  0
   23.4570   14.6046    7.2594 C   0  0  0  0  0  0  0  0  0  0  0  0
   24.5348   13.3925    4.5000 H   0  0  0  0  0  0  0  0  0  0  0  0
   21.8313   16.5294    6.5371 C   0  0  0  0  0  0  0  0  0  0  0  0
   22.3714   17.8802    6.0346 C   0  0  0  0  0  0  0  0  0  0  0  0
   22.1265   19.0101    6.9514 N   0  0  0  0  0  0  0  0  0  0  0  0
   21.4060   20.0785    6.2576 C   0  0  0  0  0  0  0  0  0  0  0  0
   20.4501   19.6329    8.7682 C   0  0  0  0  0  0  0  0  0  0  0  0
   21.4756   18.6460    8.2176 C   0  0  0  0  0  0  0  0  0  0  0  0
 15 16  1  0
 16 13  1  0
 13 14  1  0
 13 12  1  0
 12 11  1  0
 11  1  1  0
  1  2  2  0
  2  3  1  0
  3  4  1  0
  4  5  2  0
  5  6  1  0
  6  7  2  0
  7  8  1  0
  8  9  2  0
  9  1  1  0
  9  4  1  0
  3 10  1  0
M  END
> <minimizedAffinity>
-7.04363

> <CNNscore>
0.9463331103

> <CNNaffinity>
5.7289595604

> <CNN_VS>
5.4215040207

> <CNNaffinity_variance>
0.1273349524

$$$$
MET_like


 16 17  0  0  0  0  0  0  0  0999 V2000
   22.5033   15.9665    8.2399 C   0  0  0  0  0  0  0  0  0  0  0  0
   22.4233   16.5910    7.0100 C   0  0  0  0  0  0  0  0  0  0  0  0
   23.1176   15.8401    6.1003 N   0  0  0  0  0  0  0  0  0  0  0  0
   23.6570   14.7317    6.7094 C   0  0  0  0  0  0  0  0  0  0  0  0
   24.4364   13.6981    6.1757 C   0  0  0  0  0  0  0  0  0  0  0  0
   24.8505   12.6842    7.0445 C   0  0  0  0  0  0  0  0  0  0  0  0
   24.4978   12.7053    8.3916 C   0  0  0  0  0  0  0  0  0  0  0  0
   23.7176   13.7463    8.9081 C   0  0  0  0  0  0  0  0  0  0  0  0
   23.2866   14.7819    8.0534 C   0  0  0  0  0  0  0  0  0  0  0  0
   23.2226   16.0616    5.1203 H   0  0  0  0  0  0  0  0  0  0  0  0
   21.8872   16.4420    9.5215 C   0  0  0  0  0  0  0  0  0  0  0  0
   21.1417   17.7769    9.3445 C   0  0  0  0  0  0  0  0  0  0  0  0
   19.7195   17.7335    9.7353 N   0  0  0  0  0  0  0  0  0  0  0  0
   19.3257   16.3623   10.0625 C   0  0  0  0  0  0  0  0  0  0  0  0
   18.1684   19.6054   10.5026 C   0  0  0  0  0  0  0  0  0  0  0  0
   19.3434   18.6773   10.7971 C   0  0  0  0  0  0  0  0  0  0  0  0
 15 16  1  0
 16 13  1  0
 13 14  1  0
 13 12  1  0
 12 11  1  0
 11  1  1  0
  1  2  2  0
  2  3  1  0
  3  4  1  0
  4  5  2  0
  5  6  1  0
  6  7  2  0
  7  8  1  0
  8  9  2  0
  9  1  1  0
  9  4  1  0
  3 10  1  0
M  END
> <minimizedAffinity>
-6.58944

> <CNNscore>
0.9060716629

> <CNNaffinity>
5.5198130608

> <CNN_VS>
5.0013461113

> <CNNaffinity_variance>
0.0004362189

$$$$
MET_like


 16 17  0  0  0  0  0  0  0  0999 V2000
   22.6099   15.9305    8.2069 C   0  0  0  0  0  0  0  0  0  0  0  0
   22.5114   16.5113    6.9571 C   0  0  0  0  0  0  0  0  0  0  0  0
   23.1701   15.7149    6.0596 N   0  0  0  0  0  0  0  0  0  0  0  0
   23.7040   14.6195    6.6963 C   0  0  0  0  0  0  0  0  0  0  0  0
   24.4517   13.5527    6.1828 C   0  0  0  0  0  0  0  0  0  0  0  0
   24.8684   12.5634    7.0783 C   0  0  0  0  0  0  0  0  0  0  0  0
   24.5487   12.6401    8.4316 C   0  0  0  0  0  0  0  0  0  0  0  0
   23.8000   13.7136    8.9276 C   0  0  0  0  0  0  0  0  0  0  0  0
   23.3671   14.7253    8.0458 C   0  0  0  0  0  0  0  0  0  0  0  0
   23.2553   15.8986    5.0699 H   0  0  0  0  0  0  0  0  0  0  0  0
   22.0335   16.4637    9.4843 C   0  0  0  0  0  0  0  0  0  0  0  0
   20.5061   16.6357    9.4021 C   0  0  0  0  0  0  0  0  0  0  0  0
   20.0414   18.0235    9.5897 N   0  0  0  0  0  0  0  0  0  0  0  0
   19.3802   18.1652   10.8878 C   0  0  0  0  0  0  0  0  0  0  0  0
   21.1338   19.6957    8.0056 C   0  0  0  0  0  0  0  0  0  0  0  0
   21.0722   19.0511    9.3874 C   0  0  0  0  0  0  0  0  0  0  0  0
 15 16  1  0
 16 13  1  0
 13 14  1  0
 13 12  1  0
 12 11  1  0
 11  1  1  0
  1  2  2  0
  2  3  1  0
  3  4  1  0
  4  5  2  0
  5  6  1  0
  6  7  2  0
  7  8  1  0
  8  9  2  0
  9  1  1  0
  9  4  1  0
  3 10  1  0
M  END
> <minimizedAffinity>
-6.64007

> <CNNscore>
0.8830841184

> <CNNaffinity>
5.4503607750

> <CNN_VS>
4.8131270409

> <CNNaffinity_variance>
0.0366806276

$$$$
MET_like


 16 17  0  0  0  0  0  0  0  0999 V2000
   22.2270   16.2657    8.7418 C   0  0  0  0  0  0  0  0  0  0  0  0
   21.5943   17.0390    7.7875 C   0  0  0  0  0  0  0  0  0  0  0  0
   21.9612   16.5817    6.5506 N   0  0  0  0  0  0  0  0  0  0  0  0
   22.8277   15.5211    6.6723 C   0  0  0  0  0  0  0  0  0  0  0  0
   23.4545   14.7500    5.6857 C   0  0  0  0  0  0  0  0  0  0  0  0
   24.2973   13.7179    6.1083 C   0  0  0  0  0  0  0  0  0  0  0  0
   24.5028   13.4689    7.4631 C   0  0  0  0  0  0  0  0  0  0  0  0
   23.8676   14.2495    8.4359 C   0  0  0  0  0  0  0  0  0  0  0  0
   23.0123   15.2972    8.0367 C   0  0  0  0  0  0  0  0  0  0  0  0
   21.6446   16.9630    5.6704 H   0  0  0  0  0  0  0  0  0  0  0  0
   22.1112   16.4157   10.2291 C   0  0  0  0  0  0  0  0  0  0  0  0
   20.6626   16.2365   10.7174 C   0  0  0  0  0  0  0  0  0  0  0  0
   19.9831   17.4965   11.0751 N   0  0  0  0  0  0  0  0  0  0  0  0
   20.9645   18.5662   11.2614 C   0  0  0  0  0  0  0  0  0  0  0  0
   17.9514   18.9784   10.6566 C   0  0  0  0  0  0  0  0  0  0  0  0
   18.9065   17.8974   10.1587 C   0  0  0  0  0  0  0  0  0  0  0  0
 15 16  1  0
 16 13  1  0
 13 14  1  0
 13 12  1  0
 12 11  1  0
 11  1  1  0
  1  2  2  0
  2  3  1  0
  3  4  1  0
  4  5  2  0
  5  6  1  0
  6  7  2  0
  7  8  1  0
  8  9  2  0
  9  1  1  0
  9  4  1  0
  3 10  1  0
M  END
> <minimizedAffinity>
-6.14544

> <CNNscore>
0.8349696398

> <CNNaffinity>
5.4581503868

> <CNN_VS>
4.5573897362

> <CNNaffinity_variance>
0.1000019312

$$$$
MET_like


 16 17  0  0  0  0  0  0  0  0999 V2000
    6.3352   13.7570    4.8219 C   0  0  0  0  0  0  0  0  0  0  0  0
    6.5070   12.6584    5.6420 C   0  0  0  0  0  0  0  0  0  0  0  0
    7.0865   13.0789    6.8086 N   0  0  0  0  0  0  0  0  0  0  0  0
    7.3027   14.4362    6.7714 C   0  0  0  0  0  0  0  0  0  0  0  0
    7.8675   15.2867    7.7297 C   0  0  0  0  0  0  0  0  0  0  0  0
    7.9615   16.6455    7.4150 C   0  0  0  0  0  0  0  0  0  0  0  0
    7.5080   17.1313    6.1911 C   0  0  0  0  0  0  0  0  0  0  0  0
    6.9457   16.2667    5.2449 C   0  0  0  0  0  0  0  0  0  0  0  0
    6.8391   14.8913    5.5369 C   0  0  0  0  0  0  0  0  0  0  0  0
    7.3237   12.4835    7.5894 H   0  0  0  0  0  0  0  0  0  0  0  0
    5.7363   13.7569    3.4473 C   0  0  0  0  0  0  0  0  0  0  0  0
    6.0386   12.4545    2.6848 C   0  0  0  0  0  0  0  0  0  0  0  0
    7.4048   12.3784    2.1327 N   0  0  0  0  0  0  0  0  0  0  0  0
    7.7531   10.9889    1.8322 C   0  0  0  0  0  0  0  0  0  0  0  0
    9.1146   13.4616    0.5827 C   0  0  0  0  0  0  0  0  0  0  0  0
    7.6565   13.2638    0.9872 C   0  0  0  0  0  0  0  0  0  0  0  0
 15 16  1  0
 16 13  1  0
 13 14  1  0
 13 12  1  0
 12 11  1  0
 11  1  1  0
  1  2  2  0
  2  3  1  0
  3  4  1  0
  4  5  2  0
  5  6  1  0
  6  7  2  0
  7  8  1  0
  8  9  2  0
  9  1  1  0
  9  4  1  0
  3 10  1  0
M  END
> <minimizedAffinity>
-4.37226

> <CNNscore>
0.8309691548

> <CNNaffinity>
5.0475649834

> <CNN_VS>
4.1943707466

> <CNNaffinity_variance>
0.8159175515

$$$$
MET_like


 16 17  0  0  0  0  0  0  0  0999 V2000
   22.5450   15.8390    8.5245 C   0  0  0  0  0  0  0  0  0  0  0  0
   22.5014   15.4006    9.8341 C   0  0  0  0  0  0  0  0  0  0  0  0
   23.1905   14.2207    9.9159 N   0  0  0  0  0  0  0  0  0  0  0  0
   23.6862   13.8715    8.6819 C   0  0  0  0  0  0  0  0  0  0  0  0
   24.4419   12.7580    8.2949 C   0  0  0  0  0  0  0  0  0  0  0  0
   24.8128   12.6623    6.9505 C   0  0  0  0  0  0  0  0  0  0  0  0
   24.4421   13.6418    6.0326 C   0  0  0  0  0  0  0  0  0  0  0  0
   23.6868   14.7486    6.4370 C   0  0  0  0  0  0  0  0  0  0  0  0
   23.2992   14.8697    7.7874 C   0  0  0  0  0  0  0  0  0  0  0  0
   23.3211   13.6790   10.7585 H   0  0  0  0  0  0  0  0  0  0  0  0
   21.9205   17.0901    7.9833 C   0  0  0  0  0  0  0  0  0  0  0  0
   21.1280   17.8532    9.0597 C   0  0  0  0  0  0  0  0  0  0  0  0
   21.0908   19.3151    8.8628 N   0  0  0  0  0  0  0  0  0  0  0  0
   21.5580   19.6573    7.5186 C   0  0  0  0  0  0  0  0  0  0  0  0
   18.9490   19.2764   10.2449 C   0  0  0  0  0  0  0  0  0  0  0  0
   19.7988   19.9451    9.1681 C   0  0  0  0  0  0  0  0  0  0  0  0
 15 16  1  0
 16 13  1  0
 13 14  1  0
 13 12  1  0
 12 11  1  0
 11  1  1  0
  1  2  2  0
  2  3  1  0
  3  4  1  0
  4  5  2  0
  5  6  1  0
  6  7  2  0
  7  8  1  0
  8  9  2  0
  9  1  1  0
  9  4  1  0
  3 10  1  0
M  END
> <minimizedAffinity>
-6.60202

> <CNNscore>
0.7898606658

> <CNNaffinity>
5.8209071159

> <CNN_VS>
4.5977053642

> <CNNaffinity_variance>
0.0647526607

$$$$
MET_like


 16 17  0  0  0  0  0  0  0  0999 V2000
   22.4048   15.9790    7.5883 C   0  0  0  0  0  0  0  0  0  0  0  0
   22.1869   16.0262    8.9519 C   0  0  0  0  0  0  0  0  0  0  0  0
   22.8683   14.9907    9.5324 N   0  0  0  0  0  0  0  0  0  0  0  0
   23.5303   14.2592    8.5748 C   0  0  0  0  0  0  0  0  0  0  0  0
   24.3410   13.1250    8.7058 C   0  0  0  0  0  0  0  0  0  0  0  0
   24.8923   12.5846    7.5404 C   0  0  0  0  0  0  0  0  0  0  0  0
   24.6418   13.1574    6.2959 C   0  0  0  0  0  0  0  0  0  0  0  0
   23.8293   14.2915    6.1835 C   0  0  0  0  0  0  0  0  0  0  0  0
   23.2604   14.8567    7.3435 C   0  0  0  0  0  0  0  0  0  0  0  0
   22.8874   14.7873   10.5217 H   0  0  0  0  0  0  0  0  0  0  0  0
   21.8493   16.9236    6.5648 C   0  0  0  0  0  0  0  0  0  0  0  0
   22.7522   18.1536    6.3627 C   0  0  0  0  0  0  0  0  0  0  0  0
   22.1250   19.4347    6.7403 N   0  0  0  0  0  0  0  0  0  0  0  0
   21.0486   19.7667    5.8057 C   0  0  0  0  0  0  0  0  0  0  0  0
   20.2120   19.8707    8.3680 C   0  0  0  0  0  0  0  0  0  0  0  0
   21.6776   19.5132    8.1379 C   0  0  0  0  0  0  0  0  0  0  0  0
 15 16  1  0
 16 13  1  0
 13 14  1  0
 13 12  1  0
 12 11  1  0
 11  1  1  0
  1  2  2  0
  2  3  1  0
  3  4  1  0
  4  5  2  0
  5  6  1  0
  6  7  2  0
  7  8  1  0
  8  9  2  0
  9  1  1  0
  9  4  1  0
  3 10  1  0
M  END
> <minimizedAffinity>
-5.82474

> <CNNscore>
0.7820786238

> <CNNaffinity>
5.7773060799

> <CNN_VS>
4.5183076859

> <CNNaffinity_variance>
0.0908750370

$$$$
MET_like


 16 17  0  0  0  0  0  0  0  0999 V2000
   22.8191   15.5577    9.0497 C   0  0  0  0  0  0  0  0  0  0  0  0
   23.2274   14.3267    9.5263 C   0  0  0  0  0  0  0  0  0  0  0  0
   23.7026   13.5935    8.4727 N   0  0  0  0  0  0  0  0  0  0  0  0
   23.6125   14.3187    7.3080 C   0  0  0  0  0  0  0  0  0  0  0  0
   23.9738   13.9739    5.9999 C   0  0  0  0  0  0  0  0  0  0  0  0
   23.7663   14.9264    4.9980 C   0  0  0  0  0  0  0  0  0  0  0  0
   23.2199   16.1725    5.2951 C   0  0  0  0  0  0  0  0  0  0  0  0
   22.8648   16.5006    6.6086 C   0  0  0  0  0  0  0  0  0  0  0  0
   23.0635   15.5579    7.6383 C   0  0  0  0  0  0  0  0  0  0  0  0
   24.0690   12.6542    8.5342 H   0  0  0  0  0  0  0  0  0  0  0  0
   22.2327   16.6757    9.8587 C   0  0  0  0  0  0  0  0  0  0  0  0
   20.9278   17.2120    9.2435 C   0  0  0  0  0  0  0  0  0  0  0  0
   20.4815   18.5039    9.7994 N   0  0  0  0  0  0  0  0  0  0  0  0
   21.3063   18.8717   10.9512 C   0  0  0  0  0  0  0  0  0  0  0  0
   21.4376   19.6092    7.7105 C   0  0  0  0  0  0  0  0  0  0  0  0
   20.3915   19.5972    8.8215 C   0  0  0  0  0  0  0  0  0  0  0  0
 15 16  1  0
 16 13  1  0
 13 14  1  0
 13 12  1  0
 12 11  1  0
 11  1  1  0
  1  2  2  0
  2  3  1  0
  3  4  1  0
  4  5  2  0
  5  6  1  0
  6  7  2  0
  7  8  1  0
  8  9  2  0
  9  1  1  0
  9  4  1  0
  3 10  1  0
M  END
> <minimizedAffinity>
-6.35793

> <CNNscore>
0.7745619416

> <CNNaffinity>
5.3915305138

> <CNN_VS>
4.1760745049

> <CNNaffinity_variance>
0.0214092974

$$$$
MET_like


 16 17  0  0  0  0  0  0  0  0999 V2000
   27.8578   27.5588   -8.4841 C   0  0  0  0  0  0  0  0  0  0  0  0
   28.5513   26.8259   -9.4281 C   0  0  0  0  0  0  0  0  0  0  0  0
   28.3015   25.4978   -9.2102 N   0  0  0  0  0  0  0  0  0  0  0  0
   27.4569   25.3415   -8.1366 C   0  0  0  0  0  0  0  0  0  0  0  0
   26.9389   24.1763   -7.5580 C   0  0  0  0  0  0  0  0  0  0  0  0
   26.0895   24.3220   -6.4573 C   0  0  0  0  0  0  0  0  0  0  0  0
   25.7724   25.5828   -5.9578 C   0  0  0  0  0  0  0  0  0  0  0  0
   26.2990   26.7370   -6.5489 C   0  0  0  0  0  0  0  0  0  0  0  0
   27.1586   26.6183   -7.6605 C   0  0  0  0  0  0  0  0  0  0  0  0
   28.6793   24.7363   -9.7559 H   0  0  0  0  0  0  0  0  0  0  0  0
   27.8436   29.0522   -8.3510 C   0  0  0  0  0  0  0  0  0  0  0  0
   28.0796   29.7553   -9.6997 C   0  0  0  0  0  0  0  0  0  0  0  0
   26.9279   29.7029  -10.6206 N   0  0  0  0  0  0  0  0  0  0  0  0
   25.8614   30.5873  -10.1488 C   0  0  0  0  0  0  0  0  0  0  0  0
   28.3939   29.1218  -12.6236 C   0  0  0  0  0  0  0  0  0  0  0  0
   27.2559   29.9484  -12.0319 C   0  0  0  0  0  0  0  0  0  0  0  0
 15 16  1  0
 16 13  1  0
 13 14  1  0
 13 12  1  0
 12 11  1  0
 11  1  1  0
  1  2  2  0
  2  3  1  0
  3  4  1  0
  4  5  2  0
  5  6  1  0
  6  7  2  0
  7  8  1  0
  8  9  2  0
  9  1  1  0
  9  4  1  0
  3 10  1  0
M  END
> <minimizedAffinity>
-4.68832

> <CNNscore>
0.7722067237

> <CNNaffinity>
4.4031004906

> <CNN_VS>
3.4001038074

> <CNNaffinity_variance>
0.2264631540

$$$$
MET_like


 16 17  0  0  0  0  0  0  0  0999 V2000
   22.9142   15.4465    8.9822 C   0  0  0  0  0  0  0  0  0  0  0  0
   23.3455   14.2306    9.4770 C   0  0  0  0  0  0  0  0  0  0  0  0
   23.8459   13.4958    8.4362 N   0  0  0  0  0  0  0  0  0  0  0  0
   23.7498   14.2050    7.2622 C   0  0  0  0  0  0  0  0  0  0  0  0
   24.1298   13.8528    5.9613 C   0  0  0  0  0  0  0  0  0  0  0  0
   23.9099   14.7885    4.9464 C   0  0  0  0  0  0  0  0  0  0  0  0
   23.3334   16.0256    5.2239 C   0  0  0  0  0  0  0  0  0  0  0  0
   22.9599   16.3612    6.5304 C   0  0  0  0  0  0  0  0  0  0  0  0
   23.1706   15.4354    7.5730 C   0  0  0  0  0  0  0  0  0  0  0  0
   24.2325   12.5656    8.5120 H   0  0  0  0  0  0  0  0  0  0  0  0
   22.2963   16.5606    9.7728 C   0  0  0  0  0  0  0  0  0  0  0  0
   21.0576   17.1483    9.0732 C   0  0  0  0  0  0  0  0  0  0  0  0
   20.2919   18.1033    9.8972 N   0  0  0  0  0  0  0  0  0  0  0  0
   20.2808   19.4230    9.2645 C   0  0  0  0  0  0  0  0  0  0  0  0
   18.6054   16.1938    9.9910 C   0  0  0  0  0  0  0  0  0  0  0  0
   18.9380   17.6592   10.2569 C   0  0  0  0  0  0  0  0  0  0  0  0
 15 16  1  0
 16 13  1  0
 13 14  1  0
 13 12  1  0
 12 11  1  0
 11  1  1  0
  1  2  2  0
  2  3  1  0
  3  4  1  0
  4  5  2  0
  5  6  1  0
  6  7  2  0
  7  8  1  0
  8  9  2  0
  9  1  1  0
  9  4  1  0
  3 10  1  0
M  END
> <minimizedAffinity>
-6.31883

> <CNNscore>
0.7677097321

> <CNNaffinity>
5.3535609245

> <CNN_VS>
4.1099810600

> <CNNaffinity_variance>
0.0372346118

$$$$
MET_like


 16 17  0  0  0  0  0  0  0  0999 V2000
   26.2574   28.2314   -6.8400 C   0  0  0  0  0  0  0  0  0  0  0  0
   26.9345   28.7706   -7.9169 C   0  0  0  0  0  0  0  0  0  0  0  0
   27.4150   27.7420   -8.6816 N   0  0  0  0  0  0  0  0  0  0  0  0
   27.0688   26.5328   -8.1263 C   0  0  0  0  0  0  0  0  0  0  0  0
   27.3436   25.2295   -8.5582 C   0  0  0  0  0  0  0  0  0  0  0  0
   26.8570   24.1736   -7.7820 C   0  0  0  0  0  0  0  0  0  0  0  0
   26.1254   24.4142   -6.6216 C   0  0  0  0  0  0  0  0  0  0  0  0
   25.8597   25.7236   -6.2048 C   0  0  0  0  0  0  0  0  0  0  0  0
   26.3390   26.8072   -6.9695 C   0  0  0  0  0  0  0  0  0  0  0  0
   27.9478   27.8482   -9.5333 H   0  0  0  0  0  0  0  0  0  0  0  0
   25.5709   28.9948   -5.7473 C   0  0  0  0  0  0  0  0  0  0  0  0
   26.1179   30.4270   -5.6107 C   0  0  0  0  0  0  0  0  0  0  0  0
   26.6809   30.7369   -4.2825 N   0  0  0  0  0  0  0  0  0  0  0  0
   28.1389   30.8388   -4.3615 C   0  0  0  0  0  0  0  0  0  0  0  0
   24.9640   31.6313   -2.6238 C   0  0  0  0  0  0  0  0  0  0  0  0
   26.0874   31.9063   -3.6193 C   0  0  0  0  0  0  0  0  0  0  0  0
 15 16  1  0
 16 13  1  0
 13 14  1  0
 13 12  1  0
 12 11  1  0
 11  1  1  0
  1  2  2  0
  2  3  1  0
  3  4  1  0
  4  5  2  0
  5  6  1  0
  6  7  2  0
  7  8  1  0
  8  9  2  0
  9  1  1  0
  9  4  1  0
  3 10  1  0
M  END
> <minimizedAffinity>
-4.57331

> <CNNscore>
0.7629447579

> <CNNaffinity>
4.5762071609

> <CNN_VS>
3.4913933277

> <CNNaffinity_variance>
0.0516652875

$$$$
MET_like


 16 17  0  0  0  0  0  0  0  0999 V2000
   26.1758   28.2358   -6.8599 C   0  0  0  0  0  0  0  0  0  0  0  0
   26.7801   28.7713   -7.9811 C   0  0  0  0  0  0  0  0  0  0  0  0
   27.2620   27.7416   -8.7433 N   0  0  0  0  0  0  0  0  0  0  0  0
   26.9884   26.5353   -8.1429 C   0  0  0  0  0  0  0  0  0  0  0  0
   27.2911   25.2322   -8.5563 C   0  0  0  0  0  0  0  0  0  0  0  0
   26.8821   24.1796   -7.7322 C   0  0  0  0  0  0  0  0  0  0  0  0
   26.1980   24.4232   -6.5438 C   0  0  0  0  0  0  0  0  0  0  0  0
   25.9034   25.7324   -6.1462 C   0  0  0  0  0  0  0  0  0  0  0  0
   26.3047   26.8127   -6.9590 C   0  0  0  0  0  0  0  0  0  0  0  0
   27.7492   27.8451   -9.6222 H   0  0  0  0  0  0  0  0  0  0  0  0
   25.5138   29.0016   -5.7538 C   0  0  0  0  0  0  0  0  0  0  0  0
   24.6085   30.1252   -6.2896 C   0  0  0  0  0  0  0  0  0  0  0  0
   23.5332   30.5307   -5.3641 N   0  0  0  0  0  0  0  0  0  0  0  0
   23.9936   31.6163   -4.4971 C   0  0  0  0  0  0  0  0  0  0  0  0
   21.0502   31.0392   -5.0906 C   0  0  0  0  0  0  0  0  0  0  0  0
   22.2536   30.8540   -6.0104 C   0  0  0  0  0  0  0  0  0  0  0  0
 15 16  1  0
 16 13  1  0
 13 14  1  0
 13 12  1  0
 12 11  1  0
 11  1  1  0
  1  2  2  0
  2  3  1  0
  3  4  1  0
  4  5  2  0
  5  6  1  0
  6  7  2  0
  7  8  1  0
  8  9  2  0
  9  1  1  0
  9  4  1  0
  3 10  1  0
M  END
> <minimizedAffinity>
-4.87967

> <CNNscore>
0.7473953962

> <CNNaffinity>
4.2052292824

> <CNN_VS>
3.1429688931

> <CNNaffinity_variance>
0.3289241791

$$$$
MET_like


 16 17  0  0  0  0  0  0  0  0999 V2000
   26.1018   28.2533   -6.8987 C   0  0  0  0  0  0  0  0  0  0  0  0
   26.6731   28.7694   -8.0460 C   0  0  0  0  0  0  0  0  0  0  0  0
   27.1732   27.7297   -8.7826 N   0  0  0  0  0  0  0  0  0  0  0  0
   26.9440   26.5362   -8.1397 C   0  0  0  0  0  0  0  0  0  0  0  0
   27.2783   25.2296   -8.5161 C   0  0  0  0  0  0  0  0  0  0  0  0
   26.9127   24.1930   -7.6524 C   0  0  0  0  0  0  0  0  0  0  0  0
   26.2400   24.4552   -6.4615 C   0  0  0  0  0  0  0  0  0  0  0  0
   25.9134   25.7676   -6.1012 C   0  0  0  0  0  0  0  0  0  0  0  0
   26.2706   26.8320   -6.9544 C   0  0  0  0  0  0  0  0  0  0  0  0
   27.6438   27.8187   -9.6721 H   0  0  0  0  0  0  0  0  0  0  0  0
   25.4347   29.0353   -5.8071 C   0  0  0  0  0  0  0  0  0  0  0  0
   24.7847   30.3267   -6.3350 C   0  0  0  0  0  0  0  0  0  0  0  0
   23.3553   30.4679   -5.9974 N   0  0  0  0  0  0  0  0  0  0  0  0
   23.1786   31.4794   -4.9544 C   0  0  0  0  0  0  0  0  0  0  0  0
   22.9759   30.2383   -8.5079 C   0  0  0  0  0  0  0  0  0  0  0  0
   22.4718   30.7091   -7.1467 C   0  0  0  0  0  0  0  0  0  0  0  0
 15 16  1  0
 16 13  1  0
 13 14  1  0
 13 12  1  0
 12 11  1  0
 11  1  1  0
  1  2  2  0
  2  3  1  0
  3  4  1  0
  4  5  2  0
  5  6  1  0
  6  7  2  0
  7  8  1  0
  8  9  2  0
  9  1  1  0
  9  4  1  0
  3 10  1  0
M  END
> <minimizedAffinity>
-4.77389

> <CNNscore>
0.7338821888

> <CNNaffinity>
4.2021918297

> <CNN_VS>
3.0839138031

> <CNNaffinity_variance>
0.3282473385

$$$$
MET_like


 16 17  0  0  0  0  0  0  0  0999 V2000
   22.4523   16.2908    7.4662 C   0  0  0  0  0  0  0  0  0  0  0  0
   22.1868   17.6127    7.1643 C   0  0  0  0  0  0  0  0  0  0  0  0
   22.5928   17.8503    5.8789 N   0  0  0  0  0  0  0  0  0  0  0  0
   23.1243   16.7082    5.3279 C   0  0  0  0  0  0  0  0  0  0  0  0
   23.6604   16.4860    4.0536 C   0  0  0  0  0  0  0  0  0  0  0  0
   24.1340   15.2028    3.7648 C   0  0  0  0  0  0  0  0  0  0  0  0
   24.0724   14.1851    4.7135 C   0  0  0  0  0  0  0  0  0  0  0  0
   23.5327   14.4249    5.9824 C   0  0  0  0  0  0  0  0  0  0  0  0
   23.0479   15.7105    6.2999 C   0  0  0  0  0  0  0  0  0  0  0  0
   22.5157   18.7349    5.3972 H   0  0  0  0  0  0  0  0  0  0  0  0
   22.1698   15.6006    8.7670 C   0  0  0  0  0  0  0  0  0  0  0  0
   23.4222   15.5093    9.6571 C   0  0  0  0  0  0  0  0  0  0  0  0
   24.5056   14.6795    9.0961 N   0  0  0  0  0  0  0  0  0  0  0  0
   25.8073   15.2842    9.3830 C   0  0  0  0  0  0  0  0  0  0  0  0
   24.7497   12.2415    8.3919 C   0  0  0  0  0  0  0  0  0  0  0  0
   24.4634   13.2639    9.4881 C   0  0  0  0  0  0  0  0  0  0  0  0
 15 16  1  0
 16 13  1  0
 13 14  1  0
 13 12  1  0
 12 11  1  0
 11  1  1  0
  1  2  2  0
  2  3  1  0
  3  4  1  0
  4  5  2  0
  5  6  1  0
  6  7  2  0
  7  8  1  0
  8  9  2  0
  9  1  1  0
  9  4  1  0
  3 10  1  0
M  END
> <minimizedAffinity>
-5.31156

> <CNNscore>
0.6425052285

> <CNNaffinity>
5.3121285439

> <CNN_VS>
3.4130704403

> <CNNaffinity_variance>
0.1788886786

$$$$
MET_like


 16 17  0  0  0  0  0  0  0  0999 V2000
   27.4819   27.9030   -8.3934 C   0  0  0  0  0  0  0  0  0  0  0  0
   26.9818   28.7456   -7.4192 C   0  0  0  0  0  0  0  0  0  0  0  0
   26.3513   27.9831   -6.4733 N   0  0  0  0  0  0  0  0  0  0  0  0
   26.4245   26.6515   -6.8079 C   0  0  0  0  0  0  0  0  0  0  0  0
   25.9240   25.5251   -6.1435 C   0  0  0  0  0  0  0  0  0  0  0  0
   26.1527   24.2749   -6.7254 C   0  0  0  0  0  0  0  0  0  0  0  0
   26.8540   24.1586   -7.9230 C   0  0  0  0  0  0  0  0  0  0  0  0
   27.3476   25.2953   -8.5735 C   0  0  0  0  0  0  0  0  0  0  0  0
   27.1307   26.5688   -8.0081 C   0  0  0  0  0  0  0  0  0  0  0  0
   25.8960   28.3402   -5.6453 H   0  0  0  0  0  0  0  0  0  0  0  0
   28.2447   28.3116   -9.6179 C   0  0  0  0  0  0  0  0  0  0  0  0
   28.1640   29.8278   -9.8704 C   0  0  0  0  0  0  0  0  0  0  0  0
   27.5787   30.1950  -11.1741 N   0  0  0  0  0  0  0  0  0  0  0  0
   28.2095   29.4253  -12.2474 C   0  0  0  0  0  0  0  0  0  0  0  0
   25.4899   30.0228  -12.6253 C   0  0  0  0  0  0  0  0  0  0  0  0
   26.1126   30.1163  -11.2353 C   0  0  0  0  0  0  0  0  0  0  0  0
 15 16  1  0
 16 13  1  0
 13 14  1  0
 13 12  1  0
 12 11  1  0
 11  1  1  0
  1  2  2  0
  2  3  1  0
  3  4  1  0
  4  5  2  0
  5  6  1  0
  6  7  2  0
  7  8  1  0
  8  9  2  0
  9  1  1  0
  9  4  1  0
  3 10  1  0
M  END
> <minimizedAffinity>
-4.94416

> <CNNscore>
0.6290158629

> <CNNaffinity>
4.2652382851

> <CNN_VS>
2.6829025745

> <CNNaffinity_variance>
0.2277777940

$$$$
MET_like


 16 17  0  0  0  0  0  0  0  0999 V2000
   27.3516   27.9443   -8.3541 C   0  0  0  0  0  0  0  0  0  0  0  0
   26.8227   28.7481   -7.3624 C   0  0  0  0  0  0  0  0  0  0  0  0
   26.2388   27.9430   -6.4219 N   0  0  0  0  0  0  0  0  0  0  0  0
   26.3709   26.6214   -6.7773 C   0  0  0  0  0  0  0  0  0  0  0  0
   25.9310   25.4631   -6.1249 C   0  0  0  0  0  0  0  0  0  0  0  0
   26.2121   24.2336   -6.7279 C   0  0  0  0  0  0  0  0  0  0  0  0
   26.9054   24.1680   -7.9339 C   0  0  0  0  0  0  0  0  0  0  0  0
   27.3381   25.3362   -8.5721 C   0  0  0  0  0  0  0  0  0  0  0  0
   27.0676   26.5897   -7.9854 C   0  0  0  0  0  0  0  0  0  0  0  0
   25.7759   28.2661   -5.5842 H   0  0  0  0  0  0  0  0  0  0  0  0
   28.0814   28.4063   -9.5796 C   0  0  0  0  0  0  0  0  0  0  0  0
   28.5293   29.8746   -9.4670 C   0  0  0  0  0  0  0  0  0  0  0  0
   28.0967   30.7283  -10.5901 N   0  0  0  0  0  0  0  0  0  0  0  0
   27.1827   29.9911  -11.4639 C   0  0  0  0  0  0  0  0  0  0  0  0
   27.2429   32.2262   -8.7123 C   0  0  0  0  0  0  0  0  0  0  0  0
   27.5427   32.0310  -10.1958 C   0  0  0  0  0  0  0  0  0  0  0  0
 15 16  1  0
 16 13  1  0
 13 14  1  0
 13 12  1  0
 12 11  1  0
 11  1  1  0
  1  2  2  0
  2  3  1  0
  3  4  1  0
  4  5  2  0
  5  6  1  0
  6  7  2  0
  7  8  1  0
  8  9  2  0
  9  1  1  0
  9  4  1  0
  3 10  1  0
M  END
> <minimizedAffinity>
-4.59781

> <CNNscore>
0.5978602767

> <CNNaffinity>
4.2408947945

> <CNN_VS>
2.5354626179

> <CNNaffinity_variance>
0.1907209158

$$$$
MET_like


 16 17  0  0  0  0  0  0  0  0999 V2000
   27.7107   27.6515   -8.5121 C   0  0  0  0  0  0  0  0  0  0  0  0
   28.4573   26.9616   -9.4479 C   0  0  0  0  0  0  0  0  0  0  0  0
   28.3071   25.6212   -9.2147 N   0  0  0  0  0  0  0  0  0  0  0  0
   27.4761   25.4145   -8.1391 C   0  0  0  0  0  0  0  0  0  0  0  0
   27.0461   24.2207   -7.5470 C   0  0  0  0  0  0  0  0  0  0  0  0
   26.1877   24.3151   -6.4477 C   0  0  0  0  0  0  0  0  0  0  0  0
   25.7773   25.5544   -5.9625 C   0  0  0  0  0  0  0  0  0  0  0  0
   26.2167   26.7378   -6.5670 C   0  0  0  0  0  0  0  0  0  0  0  0
   27.0832   26.6710   -7.6775 C   0  0  0  0  0  0  0  0  0  0  0  0
   28.7409   24.8838   -9.7519 H   0  0  0  0  0  0  0  0  0  0  0  0
   27.5851   29.1411   -8.3960 C   0  0  0  0  0  0  0  0  0  0  0  0
   26.2312   29.6501   -8.9225 C   0  0  0  0  0  0  0  0  0  0  0  0
   25.2551   29.9797   -7.8662 N   0  0  0  0  0  0  0  0  0  0  0  0
   25.9442   30.4986   -6.6837 C   0  0  0  0  0  0  0  0  0  0  0  0
   22.8203   30.1991   -8.5891 C   0  0  0  0  0  0  0  0  0  0  0  0
   24.1615   30.8639   -8.2922 C   0  0  0  0  0  0  0  0  0  0  0  0
 15 16  1  0
 16 13  1  0
 13 14  1  0
 13 12  1  0
 12 11  1  0
 11  1  1  0
  1  2  2  0
  2  3  1  0
  3  4  1  0
  4  5  2  0
  5  6  1  0
  6  7  2  0
  7  8  1  0
  8  9  2  0
  9  1  1  0
  9  4  1  0
  3 10  1  0
M  END
> <minimizedAffinity>
-4.65112

> <CNNscore>
0.5952174067

> <CNNaffinity>
3.7705383301

> <CNN_VS>
2.2442901134

> <CNNaffinity_variance>
0.7983730435

$$$$
MET_like


 16 17  0  0  0  0  0  0  0  0999 V2000
   23.1544   14.6109    6.2769 C   0  0  0  0  0  0  0  0  0  0  0  0
   24.0049   14.0720    5.3306 C   0  0  0  0  0  0  0  0  0  0  0  0
   24.9881   13.3772    5.9819 N   0  0  0  0  0  0  0  0  0  0  0  0
   24.8026   13.4504    7.3422 C   0  0  0  0  0  0  0  0  0  0  0  0
   25.5551   12.8996    8.3867 C   0  0  0  0  0  0  0  0  0  0  0  0
   25.1229   13.1410    9.6940 C   0  0  0  0  0  0  0  0  0  0  0  0
   23.9838   13.9024    9.9438 C   0  0  0  0  0  0  0  0  0  0  0  0
   23.2432   14.4451    8.8874 C   0  0  0  0  0  0  0  0  0  0  0  0
   23.6573   14.2169    7.5589 C   0  0  0  0  0  0  0  0  0  0  0  0
   25.7443   12.8790    5.5341 H   0  0  0  0  0  0  0  0  0  0  0  0
   21.9396   15.4477    6.0083 C   0  0  0  0  0  0  0  0  0  0  0  0
   21.8516   16.6595    6.9532 C   0  0  0  0  0  0  0  0  0  0  0  0
   22.6430   17.8263    6.5182 N   0  0  0  0  0  0  0  0  0  0  0  0
   23.3560   17.5205    5.2770 C   0  0  0  0  0  0  0  0  0  0  0  0
   21.4815   19.7445    7.7309 C   0  0  0  0  0  0  0  0  0  0  0  0
   21.8854   19.0815    6.4171 C   0  0  0  0  0  0  0  0  0  0  0  0
 15 16  1  0
 16 13  1  0
 13 14  1  0
 13 12  1  0
 12 11  1  0
 11  1  1  0
  1  2  2  0
  2  3  1  0
  3  4  1  0
  4  5  2  0
  5  6  1  0
  6  7  2  0
  7  8  1  0
  8  9  2  0
  9  1  1  0
  9  4  1  0
  3 10  1  0
M  END
> <minimizedAffinity>
-5.11280

> <CNNscore>
0.5883685946

> <CNNaffinity>
4.8359146118

> <CNN_VS>
2.8453001976

> <CNNaffinity_variance>
0.4060529172

$$$$
