DMT_like


 16 17  0  0  0  0  0  0  0  0999 V2000
   17.4782   14.9706   43.4140 C   0  0  0  0  0  0  0  0  0  0  0  0
   18.0971   15.2677   42.2156 C   0  0  0  0  0  0  0  0  0  0  0  0
   18.1451   16.6310   42.0821 N   0  0  0  0  0  0  0  0  0  0  0  0
   17.5784   17.2337   43.1801 C   0  0  0  0  0  0  0  0  0  0  0  0
   17.4177   18.5925   43.4748 C   0  0  0  0  0  0  0  0  0  0  0  0
   16.7847   18.9250   44.6749 C   0  0  0  0  0  0  0  0  0  0  0  0
   16.3283   17.9364   45.5422 C   0  0  0  0  0  0  0  0  0  0  0  0
   16.4969   16.5814   45.2327 C   0  0  0  0  0  0  0  0  0  0  0  0
   17.1380   16.2189   44.0294 C   0  0  0  0  0  0  0  0  0  0  0  0
   18.5339   17.1312   41.2930 H   0  0  0  0  0  0  0  0  0  0  0  0
   17.2223   13.6074   43.9641 C   0  0  0  0  0  0  0  0  0  0  0  0
   18.1936   12.5804   43.3738 C   0  0  0  0  0  0  0  0  0  0  0  0
   18.9766   10.2382   43.9243 C   0  0  0  0  0  0  0  0  0  0  0  0
   18.7293   11.6311   44.4360 N   0  0  0  0  0  0  0  0  0  0  0  0
   17.8272   11.6103   45.6429 C   0  0  0  0  0  0  0  0  0  0  0  0
   19.6323   12.0065   44.7565 H   0  0  0  0  0  0  0  0  0  0  0  0
 13 14  1  0
 14 15  1  0
 14 12  1  0
 12 11  1  0
 11  1  1  0
  1  2  2  0
  2  3  1  0
  3  4  1  0
  4  5  2  0
  5  6  1  0
  6  7  2  0
  7  8  1  0
  8  9  2  0
  9  1  1  0
  9  4  1  0
 14 16  1  0
  3 10  1  0
M  CHG 1  14   1
M  END
> <minimizedAffinity>
-4.12612

> <CNNscore>
0.8114645481

> <CNNaffinity>
6.3142204285

> <CNN_VS>
5.1237659454

> <CNNaffinity_variance>
6.6019110680

$$$$
DMT_like


 16 17  0  0  0  0  0  0  0  0999 V2000
   17.8390   16.1173   42.1343 C   0  0  0  0  0  0  0  0  0  0  0  0
   18.5673   17.1125   41.5126 C   0  0  0  0  0  0  0  0  0  0  0  0
   18.4494   18.2593   42.2540 N   0  0  0  0  0  0  0  0  0  0  0  0
   17.6651   18.0291   43.3594 C   0  0  0  0  0  0  0  0  0  0  0  0
   17.2856   18.8999   44.3874 C   0  0  0  0  0  0  0  0  0  0  0  0
   16.4587   18.3937   45.3932 C   0  0  0  0  0  0  0  0  0  0  0  0
   16.0270   17.0705   45.3678 C   0  0  0  0  0  0  0  0  0  0  0  0
   16.4158   16.2123   44.3322 C   0  0  0  0  0  0  0  0  0  0  0  0
   17.2551   16.6971   43.3071 C   0  0  0  0  0  0  0  0  0  0  0  0
   18.8698   19.1516   42.0277 H   0  0  0  0  0  0  0  0  0  0  0  0
   17.6969   14.7051   41.6737 C   0  0  0  0  0  0  0  0  0  0  0  0
   18.5813   13.7625   42.4959 C   0  0  0  0  0  0  0  0  0  0  0  0
   18.8532   11.3315   43.1425 C   0  0  0  0  0  0  0  0  0  0  0  0
   18.3806   12.3070   42.0993 N   0  0  0  0  0  0  0  0  0  0  0  0
   19.0186   12.0206   40.7644 C   0  0  0  0  0  0  0  0  0  0  0  0
   17.3699   12.1589   41.9743 H   0  0  0  0  0  0  0  0  0  0  0  0
 13 14  1  0
 14 15  1  0
 14 12  1  0
 12 11  1  0
 11  1  1  0
  1  2  2  0
  2  3  1  0
  3  4  1  0
  4  5  2  0
  5  6  1  0
  6  7  2  0
  7  8  1  0
  8  9  2  0
  9  1  1  0
  9  4  1  0
 14 16  1  0
  3 10  1  0
M  CHG 1  14   1
M  END
> <minimizedAffinity>
-4.13239

> <CNNscore>
0.7770674229

> <CNNaffinity>
5.7564849854

> <CNN_VS>
4.4731769562

> <CNNaffinity_variance>
3.9388644695

$$$$
DMT_like


 16 17  0  0  0  0  0  0  0  0999 V2000
   18.5327   13.1519   44.0898 C   0  0  0  0  0  0  0  0  0  0  0  0
   19.5416   13.0077   45.0218 C   0  0  0  0  0  0  0  0  0  0  0  0
   19.4578   14.0470   45.9114 N   0  0  0  0  0  0  0  0  0  0  0  0
   18.4019   14.8647   45.5850 C   0  0  0  0  0  0  0  0  0  0  0  0
   17.9402   16.0276   46.2124 C   0  0  0  0  0  0  0  0  0  0  0  0
   16.8375   16.6739   45.6486 C   0  0  0  0  0  0  0  0  0  0  0  0
   16.2251   16.1774   44.5013 C   0  0  0  0  0  0  0  0  0  0  0  0
   16.6992   15.0127   43.8858 C   0  0  0  0  0  0  0  0  0  0  0  0
   17.8081   14.3377   44.4383 C   0  0  0  0  0  0  0  0  0  0  0  0
   20.0797   14.2024   46.6944 H   0  0  0  0  0  0  0  0  0  0  0  0
   18.2488   12.2392   42.9439 C   0  0  0  0  0  0  0  0  0  0  0  0
   18.8445   12.7831   41.6416 C   0  0  0  0  0  0  0  0  0  0  0  0
   19.0602   11.6757   39.3769 C   0  0  0  0  0  0  0  0  0  0  0  0
   19.4991   11.6851   40.8158 N   0  0  0  0  0  0  0  0  0  0  0  0
   19.2892   10.3356   41.4527 C   0  0  0  0  0  0  0  0  0  0  0  0
   20.5140   11.8553   40.8272 H   0  0  0  0  0  0  0  0  0  0  0  0
 13 14  1  0
 14 15  1  0
 14 12  1  0
 12 11  1  0
 11  1  1  0
  1  2  2  0
  2  3  1  0
  3  4  1  0
  4  5  2  0
  5  6  1  0
  6  7  2  0
  7  8  1  0
  8  9  2  0
  9  1  1  0
  9  4  1  0
 14 16  1  0
  3 10  1  0
M  CHG 1  14   1
M  END
> <minimizedAffinity>
-3.96676

> <CNNscore>
0.7742362022

> <CNNaffinity>
5.7230911255

> <CNN_VS>
4.4310245514

> <CNNaffinity_variance>
2.5047504902

$$$$
DMT_like


 16 17  0  0  0  0  0  0  0  0999 V2000
   18.2198   18.8996   42.2879 C   0  0  0  0  0  0  0  0  0  0  0  0
   18.0897   19.7596   43.3608 C   0  0  0  0  0  0  0  0  0  0  0  0
   17.4430   19.0945   44.3698 N   0  0  0  0  0  0  0  0  0  0  0  0
   17.1575   17.8073   43.9804 C   0  0  0  0  0  0  0  0  0  0  0  0
   16.5199   16.7780   44.6827 C   0  0  0  0  0  0  0  0  0  0  0  0
   16.3482   15.5562   44.0275 C   0  0  0  0  0  0  0  0  0  0  0  0
   16.7936   15.3746   42.7212 C   0  0  0  0  0  0  0  0  0  0  0  0
   17.4297   16.4145   42.0326 C   0  0  0  0  0  0  0  0  0  0  0  0
   17.6205   17.6567   42.6735 C   0  0  0  0  0  0  0  0  0  0  0  0
   17.2016   19.4854   45.2715 H   0  0  0  0  0  0  0  0  0  0  0  0
   18.8697   19.2073   40.9804 C   0  0  0  0  0  0  0  0  0  0  0  0
   20.0526   20.1637   41.1611 C   0  0  0  0  0  0  0  0  0  0  0  0
   20.0947   20.0916   38.6323 C   0  0  0  0  0  0  0  0  0  0  0  0
   20.3943   20.8929   39.8697 N   0  0  0  0  0  0  0  0  0  0  0  0
   21.8279   21.3574   39.8777 C   0  0  0  0  0  0  0  0  0  0  0  0
   19.8153   21.7429   39.8342 H   0  0  0  0  0  0  0  0  0  0  0  0
 13 14  1  0
 14 15  1  0
 14 12  1  0
 12 11  1  0
 11  1  1  0
  1  2  2  0
  2  3  1  0
  3  4  1  0
  4  5  2  0
  5  6  1  0
  6  7  2  0
  7  8  1  0
  8  9  2  0
  9  1  1  0
  9  4  1  0
 14 16  1  0
  3 10  1  0
M  CHG 1  14   1
M  END
> <minimizedAffinity>
-3.87871

> <CNNscore>
0.7453156710

> <CNNaffinity>
5.1493191719

> <CNN_VS>
3.8378682137

> <CNNaffinity_variance>
0.4546769857

$$$$
DMT_like


 16 17  0  0  0  0  0  0  0  0999 V2000
   17.1054   16.6419   43.3869 C   0  0  0  0  0  0  0  0  0  0  0  0
   17.3386   16.8677   42.0446 C   0  0  0  0  0  0  0  0  0  0  0  0
   18.0135   18.0540   41.9184 N   0  0  0  0  0  0  0  0  0  0  0  0
   18.2377   18.6045   43.1581 C   0  0  0  0  0  0  0  0  0  0  0  0
   18.8899   19.7926   43.5076 C   0  0  0  0  0  0  0  0  0  0  0  0
   18.9609   20.1179   44.8643 C   0  0  0  0  0  0  0  0  0  0  0  0
   18.3982   19.2886   45.8305 C   0  0  0  0  0  0  0  0  0  0  0  0
   17.7492   18.1034   45.4642 C   0  0  0  0  0  0  0  0  0  0  0  0
   17.6685   17.7490   44.1010 C   0  0  0  0  0  0  0  0  0  0  0  0
   18.3046   18.4749   41.0453 H   0  0  0  0  0  0  0  0  0  0  0  0
   16.4070   15.4632   43.9781 C   0  0  0  0  0  0  0  0  0  0  0  0
   17.2180   14.1796   43.7754 C   0  0  0  0  0  0  0  0  0  0  0  0
   19.3657   14.2925   45.1082 C   0  0  0  0  0  0  0  0  0  0  0  0
   17.9566   13.7699   45.0414 N   0  0  0  0  0  0  0  0  0  0  0  0
   17.9270   12.2739   45.2209 C   0  0  0  0  0  0  0  0  0  0  0  0
   17.4425   14.1670   45.8395 H   0  0  0  0  0  0  0  0  0  0  0  0
 13 14  1  0
 14 15  1  0
 14 12  1  0
 12 11  1  0
 11  1  1  0
  1  2  2  0
  2  3  1  0
  3  4  1  0
  4  5  2  0
  5  6  1  0
  6  7  2  0
  7  8  1  0
  8  9  2  0
  9  1  1  0
  9  4  1  0
 14 16  1  0
  3 10  1  0
M  CHG 1  14   1
M  END
> <minimizedAffinity>
-3.86605

> <CNNscore>
0.7366766334

> <CNNaffinity>
6.2621674538

> <CNN_VS>
4.6131925583

> <CNNaffinity_variance>
5.6561374664

$$$$
DMT_like


 16 17  0  0  0  0  0  0  0  0999 V2000
   19.1306    9.3773   45.2934 C   0  0  0  0  0  0  0  0  0  0  0  0
   18.3771   10.3720   45.8853 C   0  0  0  0  0  0  0  0  0  0  0  0
   18.4306   10.2018   47.2442 N   0  0  0  0  0  0  0  0  0  0  0  0
   19.2177    9.1180   47.5543 C   0  0  0  0  0  0  0  0  0  0  0  0
   19.5571    8.5834   48.8025 C   0  0  0  0  0  0  0  0  0  0  0  0
   20.3753    7.4513   48.8217 C   0  0  0  0  0  0  0  0  0  0  0  0
   20.8314    6.8765   47.6387 C   0  0  0  0  0  0  0  0  0  0  0  0
   20.4828    7.4237   46.3981 C   0  0  0  0  0  0  0  0  0  0  0  0
   19.6621    8.5703   46.3512 C   0  0  0  0  0  0  0  0  0  0  0  0
   17.9597   10.7801   47.9283 H   0  0  0  0  0  0  0  0  0  0  0  0
   19.3537    9.1877   43.8303 C   0  0  0  0  0  0  0  0  0  0  0  0
   19.7717   10.4997   43.1590 C   0  0  0  0  0  0  0  0  0  0  0  0
   19.3115   10.2926   40.6796 C   0  0  0  0  0  0  0  0  0  0  0  0
   18.8565   10.8586   41.9971 N   0  0  0  0  0  0  0  0  0  0  0  0
   18.6635   12.3503   41.9057 C   0  0  0  0  0  0  0  0  0  0  0  0
   17.9302   10.4592   42.2007 H   0  0  0  0  0  0  0  0  0  0  0  0
 13 14  1  0
 14 15  1  0
 14 12  1  0
 12 11  1  0
 11  1  1  0
  1  2  2  0
  2  3  1  0
  3  4  1  0
  4  5  2  0
  5  6  1  0
  6  7  2  0
  7  8  1  0
  8  9  2  0
  9  1  1  0
  9  4  1  0
 14 16  1  0
  3 10  1  0
M  CHG 1  14   1
M  END
> <minimizedAffinity>
-4.03583

> <CNNscore>
0.7202457190

> <CNNaffinity>
5.3066639900

> <CNN_VS>
3.8221020699

> <CNNaffinity_variance>
1.0102505684

$$$$
DMT_like


 16 17  0  0  0  0  0  0  0  0999 V2000
   17.1562   16.1923   43.0384 C   0  0  0  0  0  0  0  0  0  0  0  0
   16.2489   15.7464   43.9793 C   0  0  0  0  0  0  0  0  0  0  0  0
   16.2372   16.6362   45.0218 N   0  0  0  0  0  0  0  0  0  0  0  0
   17.1139   17.6659   44.7742 C   0  0  0  0  0  0  0  0  0  0  0  0
   17.4198   18.7900   45.5501 C   0  0  0  0  0  0  0  0  0  0  0  0
   18.3740   19.6807   45.0524 C   0  0  0  0  0  0  0  0  0  0  0  0
   18.9986   19.4523   43.8294 C   0  0  0  0  0  0  0  0  0  0  0  0
   18.6812   18.3229   43.0654 C   0  0  0  0  0  0  0  0  0  0  0  0
   17.7167   17.4106   43.5428 C   0  0  0  0  0  0  0  0  0  0  0  0
   15.6736   16.5546   45.8583 H   0  0  0  0  0  0  0  0  0  0  0  0
   17.4818   15.5326   41.7402 C   0  0  0  0  0  0  0  0  0  0  0  0
   18.6446   14.5476   41.8956 C   0  0  0  0  0  0  0  0  0  0  0  0
   18.3181   12.5656   43.4341 C   0  0  0  0  0  0  0  0  0  0  0  0
   18.1569   13.1134   42.0423 N   0  0  0  0  0  0  0  0  0  0  0  0
   18.8172   12.2146   41.0289 C   0  0  0  0  0  0  0  0  0  0  0  0
   17.1515   13.1067   41.8230 H   0  0  0  0  0  0  0  0  0  0  0  0
 13 14  1  0
 14 15  1  0
 14 12  1  0
 12 11  1  0
 11  1  1  0
  1  2  2  0
  2  3  1  0
  3  4  1  0
  4  5  2  0
  5  6  1  0
  6  7  2  0
  7  8  1  0
  8  9  2  0
  9  1  1  0
  9  4  1  0
 14 16  1  0
  3 10  1  0
M  CHG 1  14   1
M  END
> <minimizedAffinity>
-3.93646

> <CNNscore>
0.6963883638

> <CNNaffinity>
5.5782494545

> <CNN_VS>
3.8846280575

> <CNNaffinity_variance>
3.1532430649

$$$$
DMT_like


 16 17  0  0  0  0  0  0  0  0999 V2000
   18.6029   10.2781   45.6614 C   0  0  0  0  0  0  0  0  0  0  0  0
   19.1009    9.8322   44.4529 C   0  0  0  0  0  0  0  0  0  0  0  0
   19.8983    8.7432   44.6913 N   0  0  0  0  0  0  0  0  0  0  0  0
   19.9217    8.4598   46.0364 C   0  0  0  0  0  0  0  0  0  0  0  0
   20.5896    7.4422   46.7275 C   0  0  0  0  0  0  0  0  0  0  0  0
   20.4442    7.3986   48.1163 C   0  0  0  0  0  0  0  0  0  0  0  0
   19.6645    8.3382   48.7850 C   0  0  0  0  0  0  0  0  0  0  0  0
   19.0028    9.3498   48.0788 C   0  0  0  0  0  0  0  0  0  0  0  0
   19.1287    9.4128   46.6750 C   0  0  0  0  0  0  0  0  0  0  0  0
   20.4045    8.2198   43.9885 H   0  0  0  0  0  0  0  0  0  0  0  0
   17.6846   11.4361   45.8674 C   0  0  0  0  0  0  0  0  0  0  0  0
   18.2617   12.7165   45.2556 C   0  0  0  0  0  0  0  0  0  0  0  0
   18.2411   12.9236   42.7340 C   0  0  0  0  0  0  0  0  0  0  0  0
   17.4903   13.1508   44.0177 N   0  0  0  0  0  0  0  0  0  0  0  0
   17.0470   14.5862   44.1365 C   0  0  0  0  0  0  0  0  0  0  0  0
   16.6314   12.5855   43.9765 H   0  0  0  0  0  0  0  0  0  0  0  0
 13 14  1  0
 14 15  1  0
 14 12  1  0
 12 11  1  0
 11  1  1  0
  1  2  2  0
  2  3  1  0
  3  4  1  0
  4  5  2  0
  5  6  1  0
  6  7  2  0
  7  8  1  0
  8  9  2  0
  9  1  1  0
  9  4  1  0
 14 16  1  0
  3 10  1  0
M  CHG 1  14   1
M  END
> <minimizedAffinity>
-4.16014

> <CNNscore>
0.6757584810

> <CNNaffinity>
5.2326550484

> <CNN_VS>
3.5360109806

> <CNNaffinity_variance>
0.6636317968

$$$$
DMT_like


 16 17  0  0  0  0  0  0  0  0999 V2000
   22.4223    4.0563   54.4064 C   0  0  0  0  0  0  0  0  0  0  0  0
   23.1538    4.4722   55.5016 C   0  0  0  0  0  0  0  0  0  0  0  0
   22.6830    3.8152   56.6085 N   0  0  0  0  0  0  0  0  0  0  0  0
   21.6619    2.9651   56.2550 C   0  0  0  0  0  0  0  0  0  0  0  0
   20.8999    2.0995   57.0482 C   0  0  0  0  0  0  0  0  0  0  0  0
   19.9029    1.3514   56.4173 C   0  0  0  0  0  0  0  0  0  0  0  0
   19.6765    1.4688   55.0488 C   0  0  0  0  0  0  0  0  0  0  0  0
   20.4477    2.3394   54.2695 C   0  0  0  0  0  0  0  0  0  0  0  0
   21.4648    3.1022   54.8812 C   0  0  0  0  0  0  0  0  0  0  0  0
   23.0260    3.9342   57.5532 H   0  0  0  0  0  0  0  0  0  0  0  0
   22.6037    4.5101   52.9966 C   0  0  0  0  0  0  0  0  0  0  0  0
   23.0885    5.9621   52.9399 C   0  0  0  0  0  0  0  0  0  0  0  0
   21.6472    7.7166   51.8235 C   0  0  0  0  0  0  0  0  0  0  0  0
   21.9392    6.9494   53.0841 N   0  0  0  0  0  0  0  0  0  0  0  0
   22.1757    7.8843   54.2421 C   0  0  0  0  0  0  0  0  0  0  0  0
   21.0960    6.4077   53.3175 H   0  0  0  0  0  0  0  0  0  0  0  0
 13 14  1  0
 14 15  1  0
 14 12  1  0
 12 11  1  0
 11  1  1  0
  1  2  2  0
  2  3  1  0
  3  4  1  0
  4  5  2  0
  5  6  1  0
  6  7  2  0
  7  8  1  0
  8  9  2  0
  9  1  1  0
  9  4  1  0
 14 16  1  0
  3 10  1  0
M  CHG 1  14   1
M  END
> <minimizedAffinity>
-3.90865

> <CNNscore>
0.6502982378

> <CNNaffinity>
5.3567862511

> <CNN_VS>
3.4835085869

> <CNNaffinity_variance>
1.3415821791

$$$$
DMT_like


 16 17  0  0  0  0  0  0  0  0999 V2000
   18.1304   18.0801   42.0729 C   0  0  0  0  0  0  0  0  0  0  0  0
   19.2708   18.1805   42.8454 C   0  0  0  0  0  0  0  0  0  0  0  0
   19.5689   19.5090   43.0025 N   0  0  0  0  0  0  0  0  0  0  0  0
   18.6348   20.2828   42.3553 C   0  0  0  0  0  0  0  0  0  0  0  0
   18.5369   21.6755   42.2557 C   0  0  0  0  0  0  0  0  0  0  0  0
   17.4762   22.1990   41.5123 C   0  0  0  0  0  0  0  0  0  0  0  0
   16.5540   21.3613   40.8914 C   0  0  0  0  0  0  0  0  0  0  0  0
   16.6660   19.9701   41.0009 C   0  0  0  0  0  0  0  0  0  0  0  0
   17.7250   19.4159   41.7506 C   0  0  0  0  0  0  0  0  0  0  0  0
   20.3607   19.8776   43.5136 H   0  0  0  0  0  0  0  0  0  0  0  0
   17.4480   16.8184   41.6616 C   0  0  0  0  0  0  0  0  0  0  0  0
   17.9121   15.6339   42.5149 C   0  0  0  0  0  0  0  0  0  0  0  0
   16.3636   16.0744   44.4668 C   0  0  0  0  0  0  0  0  0  0  0  0
   16.7957   15.1029   43.4026 N   0  0  0  0  0  0  0  0  0  0  0  0
   17.1742   13.7749   44.0060 C   0  0  0  0  0  0  0  0  0  0  0  0
   15.9815   14.9246   42.7991 H   0  0  0  0  0  0  0  0  0  0  0  0
 13 14  1  0
 14 15  1  0
 14 12  1  0
 12 11  1  0
 11  1  1  0
  1  2  2  0
  2  3  1  0
  3  4  1  0
  4  5  2  0
  5  6  1  0
  6  7  2  0
  7  8  1  0
  8  9  2  0
  9  1  1  0
  9  4  1  0
 14 16  1  0
  3 10  1  0
M  CHG 1  14   1
M  END
> <minimizedAffinity>
-4.18197

> <CNNscore>
0.6252927184

> <CNNaffinity>
5.2734313011

> <CNN_VS>
3.2974381447

> <CNNaffinity_variance>
2.3404362202

$$$$
DMT_like


 16 17  0  0  0  0  0  0  0  0999 V2000
   17.5167   16.4058   45.3906 C   0  0  0  0  0  0  0  0  0  0  0  0
   17.9424   16.3486   46.7032 C   0  0  0  0  0  0  0  0  0  0  0  0
   18.3608   15.0699   46.9649 N   0  0  0  0  0  0  0  0  0  0  0  0
   18.2278   14.2897   45.8407 C   0  0  0  0  0  0  0  0  0  0  0  0
   18.5356   12.9384   45.6449 C   0  0  0  0  0  0  0  0  0  0  0  0
   18.2817   12.3920   44.3844 C   0  0  0  0  0  0  0  0  0  0  0  0
   17.7385   13.1671   43.3636 C   0  0  0  0  0  0  0  0  0  0  0  0
   17.4365   14.5175   43.5758 C   0  0  0  0  0  0  0  0  0  0  0  0
   17.6884   15.0951   44.8381 C   0  0  0  0  0  0  0  0  0  0  0  0
   18.7131   14.7366   47.8531 H   0  0  0  0  0  0  0  0  0  0  0  0
   16.9875   17.6083   44.6832 C   0  0  0  0  0  0  0  0  0  0  0  0
   18.0777   18.2818   43.8438 C   0  0  0  0  0  0  0  0  0  0  0  0
   18.7056   20.5946   43.0323 C   0  0  0  0  0  0  0  0  0  0  0  0
   18.2266   19.7571   44.1865 N   0  0  0  0  0  0  0  0  0  0  0  0
   19.1122   19.9424   45.3916 C   0  0  0  0  0  0  0  0  0  0  0  0
   17.2964   20.1058   44.4551 H   0  0  0  0  0  0  0  0  0  0  0  0
 13 14  1  0
 14 15  1  0
 14 12  1  0
 12 11  1  0
 11  1  1  0
  1  2  2  0
  2  3  1  0
  3  4  1  0
  4  5  2  0
  5  6  1  0
  6  7  2  0
  7  8  1  0
  8  9  2  0
  9  1  1  0
  9  4  1  0
 14 16  1  0
  3 10  1  0
M  CHG 1  14   1
M  END
> <minimizedAffinity>
-3.88535

> <CNNscore>
0.5816233158

> <CNNaffinity>
5.0099639893

> <CNN_VS>
2.9139118195

> <CNNaffinity_variance>
0.8399493694

$$$$
DMT_like


 16 17  0  0  0  0  0  0  0  0999 V2000
   18.7398   10.2865   44.6934 C   0  0  0  0  0  0  0  0  0  0  0  0
   19.2088    9.1163   44.1294 C   0  0  0  0  0  0  0  0  0  0  0  0
   19.3784    9.3238   42.7852 N   0  0  0  0  0  0  0  0  0  0  0  0
   19.0397   10.6160   42.4600 C   0  0  0  0  0  0  0  0  0  0  0  0
   19.0645   11.2651   41.2202 C   0  0  0  0  0  0  0  0  0  0  0  0
   18.6470   12.5976   41.1780 C   0  0  0  0  0  0  0  0  0  0  0  0
   18.2190   13.2514   42.3300 C   0  0  0  0  0  0  0  0  0  0  0  0
   18.2003   12.5878   43.5626 C   0  0  0  0  0  0  0  0  0  0  0  0
   18.6221   11.2433   43.6335 C   0  0  0  0  0  0  0  0  0  0  0  0
   19.7004    8.6330   42.1196 H   0  0  0  0  0  0  0  0  0  0  0  0
   18.4250   10.5106   46.1346 C   0  0  0  0  0  0  0  0  0  0  0  0
   18.9272    9.3495   46.9984 C   0  0  0  0  0  0  0  0  0  0  0  0
   19.0899    8.9516   49.4919 C   0  0  0  0  0  0  0  0  0  0  0  0
   19.4743    9.8320   48.3341 N   0  0  0  0  0  0  0  0  0  0  0  0
   19.0804   11.2637   48.5909 C   0  0  0  0  0  0  0  0  0  0  0  0
   20.5012    9.8222   48.2673 H   0  0  0  0  0  0  0  0  0  0  0  0
 13 14  1  0
 14 15  1  0
 14 12  1  0
 12 11  1  0
 11  1  1  0
  1  2  2  0
  2  3  1  0
  3  4  1  0
  4  5  2  0
  5  6  1  0
  6  7  2  0
  7  8  1  0
  8  9  2  0
  9  1  1  0
  9  4  1  0
 14 16  1  0
  3 10  1  0
M  CHG 1  14   1
M  END
> <minimizedAffinity>
-4.42183

> <CNNscore>
0.5492892265

> <CNNaffinity>
5.0749511719

> <CNN_VS>
2.7876160145

> <CNNaffinity_variance>
0.6614522338

$$$$
DMT_like


 16 17  0  0  0  0  0  0  0  0999 V2000
   17.4037   16.7264   45.7388 C   0  0  0  0  0  0  0  0  0  0  0  0
   17.9561   15.7912   46.5919 C   0  0  0  0  0  0  0  0  0  0  0  0
   19.0765   16.3372   47.1621 N   0  0  0  0  0  0  0  0  0  0  0  0
   19.2613   17.6210   46.7060 C   0  0  0  0  0  0  0  0  0  0  0  0
   20.2598   18.5499   47.0206 C   0  0  0  0  0  0  0  0  0  0  0  0
   20.2094   19.7946   46.3883 C   0  0  0  0  0  0  0  0  0  0  0  0
   19.2021   20.0945   45.4755 C   0  0  0  0  0  0  0  0  0  0  0  0
   18.2105   19.1540   45.1718 C   0  0  0  0  0  0  0  0  0  0  0  0
   18.2353   17.8914   45.8008 C   0  0  0  0  0  0  0  0  0  0  0  0
   19.6882   15.8712   47.8199 H   0  0  0  0  0  0  0  0  0  0  0  0
   16.1700   16.5555   44.9171 C   0  0  0  0  0  0  0  0  0  0  0  0
   16.3358   15.4246   43.8972 C   0  0  0  0  0  0  0  0  0  0  0  0
   17.2791   16.6483   41.8936 C   0  0  0  0  0  0  0  0  0  0  0  0
   17.5366   15.6510   42.9900 N   0  0  0  0  0  0  0  0  0  0  0  0
   18.0379   14.3466   42.4259 C   0  0  0  0  0  0  0  0  0  0  0  0
   18.2971   16.0246   43.5740 H   0  0  0  0  0  0  0  0  0  0  0  0
 13 14  1  0
 14 15  1  0
 14 12  1  0
 12 11  1  0
 11  1  1  0
  1  2  2  0
  2  3  1  0
  3  4  1  0
  4  5  2  0
  5  6  1  0
  6  7  2  0
  7  8  1  0
  8  9  2  0
  9  1  1  0
  9  4  1  0
 14 16  1  0
  3 10  1  0
M  CHG 1  14   1
M  END
> <minimizedAffinity>
-4.12451

> <CNNscore>
0.5302050114

> <CNNaffinity>
4.7797207832

> <CNN_VS>
2.5342319012

> <CNNaffinity_variance>
0.1200068817

$$$$
DMT_like


 16 17  0  0  0  0  0  0  0  0999 V2000
   18.8852   11.3393   41.9552 C   0  0  0  0  0  0  0  0  0  0  0  0
   18.4648   12.6327   42.1957 C   0  0  0  0  0  0  0  0  0  0  0  0
   18.1574   12.7450   43.5266 N   0  0  0  0  0  0  0  0  0  0  0  0
   18.3811   11.5487   44.1661 C   0  0  0  0  0  0  0  0  0  0  0  0
   18.2139   11.2063   45.5129 C   0  0  0  0  0  0  0  0  0  0  0  0
   18.5090    9.8937   45.8892 C   0  0  0  0  0  0  0  0  0  0  0  0
   18.9500    8.9619   44.9537 C   0  0  0  0  0  0  0  0  0  0  0  0
   19.1122    9.3206   43.6102 C   0  0  0  0  0  0  0  0  0  0  0  0
   18.8263   10.6414   43.2051 C   0  0  0  0  0  0  0  0  0  0  0  0
   17.8110   13.5799   43.9817 H   0  0  0  0  0  0  0  0  0  0  0  0
   19.3249   10.7808   40.6432 C   0  0  0  0  0  0  0  0  0  0  0  0
   19.0492   11.7647   39.5019 C   0  0  0  0  0  0  0  0  0  0  0  0
   18.9155    9.5546   38.2772 C   0  0  0  0  0  0  0  0  0  0  0  0
   18.7357   11.0461   38.1974 N   0  0  0  0  0  0  0  0  0  0  0  0
   19.5347   11.6257   37.0588 C   0  0  0  0  0  0  0  0  0  0  0  0
   17.7466   11.2259   37.9774 H   0  0  0  0  0  0  0  0  0  0  0  0
 13 14  1  0
 14 15  1  0
 14 12  1  0
 12 11  1  0
 11  1  1  0
  1  2  2  0
  2  3  1  0
  3  4  1  0
  4  5  2  0
  5  6  1  0
  6  7  2  0
  7  8  1  0
  8  9  2  0
  9  1  1  0
  9  4  1  0
 14 16  1  0
  3 10  1  0
M  CHG 1  14   1
M  END
> <minimizedAffinity>
-4.67379

> <CNNscore>
0.5174580812

> <CNNaffinity>
4.6866588593

> <CNN_VS>
2.4251494408

> <CNNaffinity_variance>
0.2472814322

$$$$
DMT_like


 16 17  0  0  0  0  0  0  0  0999 V2000
   18.6110   12.1296   42.3751 C   0  0  0  0  0  0  0  0  0  0  0  0
   19.1336   11.2021   41.4953 C   0  0  0  0  0  0  0  0  0  0  0  0
   19.3460   10.0329   42.1782 N   0  0  0  0  0  0  0  0  0  0  0  0
   18.9596   10.1746   43.4899 C   0  0  0  0  0  0  0  0  0  0  0  0
   18.9880    9.2483   44.5388 C   0  0  0  0  0  0  0  0  0  0  0  0
   18.5400    9.6740   45.7917 C   0  0  0  0  0  0  0  0  0  0  0  0
   18.0857   10.9754   45.9861 C   0  0  0  0  0  0  0  0  0  0  0  0
   18.0636   11.8899   44.9263 C   0  0  0  0  0  0  0  0  0  0  0  0
   18.5055   11.4836   43.6495 C   0  0  0  0  0  0  0  0  0  0  0  0
   19.7345    9.1849   41.7856 H   0  0  0  0  0  0  0  0  0  0  0  0
   18.2230   13.5341   42.0537 C   0  0  0  0  0  0  0  0  0  0  0  0
   19.4550   14.3957   41.7595 C   0  0  0  0  0  0  0  0  0  0  0  0
   18.4202   16.7041   41.7066 C   0  0  0  0  0  0  0  0  0  0  0  0
   19.3584   15.7656   42.4154 N   0  0  0  0  0  0  0  0  0  0  0  0
   20.7236   16.3841   42.5722 C   0  0  0  0  0  0  0  0  0  0  0  0
   18.9934   15.6257   43.3673 H   0  0  0  0  0  0  0  0  0  0  0  0
 13 14  1  0
 14 15  1  0
 14 12  1  0
 12 11  1  0
 11  1  1  0
  1  2  2  0
  2  3  1  0
  3  4  1  0
  4  5  2  0
  5  6  1  0
  6  7  2  0
  7  8  1  0
  8  9  2  0
  9  1  1  0
  9  4  1  0
 14 16  1  0
  3 10  1  0
M  CHG 1  14   1
M  END
> <minimizedAffinity>
-4.21784

> <CNNscore>
0.5015642643

> <CNNaffinity>
4.2454185486

> <CNN_VS>
2.1293501854

> <CNNaffinity_variance>
0.1375528127

$$$$
DMT_like


 16 17  0  0  0  0  0  0  0  0999 V2000
   18.5566   12.0705   42.9787 C   0  0  0  0  0  0  0  0  0  0  0  0
   19.1240   12.0514   41.7196 C   0  0  0  0  0  0  0  0  0  0  0  0
   18.8224   13.2328   41.0935 N   0  0  0  0  0  0  0  0  0  0  0  0
   18.0762   14.0323   41.9266 C   0  0  0  0  0  0  0  0  0  0  0  0
   17.5575   15.3145   41.7122 C   0  0  0  0  0  0  0  0  0  0  0  0
   16.8134   15.8933   42.7432 C   0  0  0  0  0  0  0  0  0  0  0  0
   16.5949   15.2135   43.9382 C   0  0  0  0  0  0  0  0  0  0  0  0
   17.1208   13.9313   44.1369 C   0  0  0  0  0  0  0  0  0  0  0  0
   17.8807   13.3265   43.1135 C   0  0  0  0  0  0  0  0  0  0  0  0
   19.0990   13.4877   40.1541 H   0  0  0  0  0  0  0  0  0  0  0  0
   18.6412   10.9900   44.0043 C   0  0  0  0  0  0  0  0  0  0  0  0
   19.7467   11.2796   45.0243 C   0  0  0  0  0  0  0  0  0  0  0  0
   18.7794    9.4945   46.5342 C   0  0  0  0  0  0  0  0  0  0  0  0
   19.3317   10.8904   46.4359 N   0  0  0  0  0  0  0  0  0  0  0  0
   18.3649   11.8946   47.0083 C   0  0  0  0  0  0  0  0  0  0  0  0
   20.1737   10.9309   47.0261 H   0  0  0  0  0  0  0  0  0  0  0  0
 13 14  1  0
 14 15  1  0
 14 12  1  0
 12 11  1  0
 11  1  1  0
  1  2  2  0
  2  3  1  0
  3  4  1  0
  4  5  2  0
  5  6  1  0
  6  7  2  0
  7  8  1  0
  8  9  2  0
  9  1  1  0
  9  4  1  0
 14 16  1  0
  3 10  1  0
M  CHG 1  14   1
M  END
> <minimizedAffinity>
-4.21711

> <CNNscore>
0.4878267348

> <CNNaffinity>
5.0512537956

> <CNN_VS>
2.4641366005

> <CNNaffinity_variance>
1.0614787340

$$$$
DMT_like


 16 17  0  0  0  0  0  0  0  0999 V2000
   18.9794    9.8503   44.1288 C   0  0  0  0  0  0  0  0  0  0  0  0
   19.4089    9.0377   43.0980 C   0  0  0  0  0  0  0  0  0  0  0  0
   19.3738    9.7624   41.9352 N   0  0  0  0  0  0  0  0  0  0  0  0
   18.9397   11.0420   42.1886 C   0  0  0  0  0  0  0  0  0  0  0  0
   18.7588   12.1182   41.3121 C   0  0  0  0  0  0  0  0  0  0  0  0
   18.2861   13.3184   41.8486 C   0  0  0  0  0  0  0  0  0  0  0  0
   18.0030   13.4341   43.2066 C   0  0  0  0  0  0  0  0  0  0  0  0
   18.1895   12.3479   44.0701 C   0  0  0  0  0  0  0  0  0  0  0  0
   18.6712   11.1262   43.5545 C   0  0  0  0  0  0  0  0  0  0  0  0
   19.6240    9.4152   41.0181 H   0  0  0  0  0  0  0  0  0  0  0  0
   18.8674    9.4707   45.5675 C   0  0  0  0  0  0  0  0  0  0  0  0
   19.8747    8.3755   45.9316 C   0  0  0  0  0  0  0  0  0  0  0  0
   20.7479    7.1264   47.9512 C   0  0  0  0  0  0  0  0  0  0  0  0
   20.2830    8.4450   47.3961 N   0  0  0  0  0  0  0  0  0  0  0  0
   19.1740    9.0233   48.2366 C   0  0  0  0  0  0  0  0  0  0  0  0
   21.0710    9.1033   47.4646 H   0  0  0  0  0  0  0  0  0  0  0  0
 13 14  1  0
 14 15  1  0
 14 12  1  0
 12 11  1  0
 11  1  1  0
  1  2  2  0
  2  3  1  0
  3  4  1  0
  4  5  2  0
  5  6  1  0
  6  7  2  0
  7  8  1  0
  8  9  2  0
  9  1  1  0
  9  4  1  0
 14 16  1  0
  3 10  1  0
M  CHG 1  14   1
M  END
> <minimizedAffinity>
-4.41584

> <CNNscore>
0.4802979827

> <CNNaffinity>
4.8464493752

> <CNN_VS>
2.3277399540

> <CNNaffinity_variance>
0.4680909216

$$$$
DMT_like


 16 17  0  0  0  0  0  0  0  0999 V2000
   25.0923   21.3799   46.7308 C   0  0  0  0  0  0  0  0  0  0  0  0
   23.7395   21.2027   46.5169 C   0  0  0  0  0  0  0  0  0  0  0  0
   23.0715   21.5729   47.6551 N   0  0  0  0  0  0  0  0  0  0  0  0
   23.9642   22.0021   48.6086 C   0  0  0  0  0  0  0  0  0  0  0  0
   23.7332   22.4757   49.9053 C   0  0  0  0  0  0  0  0  0  0  0  0
   24.8447   22.8354   50.6713 C   0  0  0  0  0  0  0  0  0  0  0  0
   26.1346   22.7216   50.1602 C   0  0  0  0  0  0  0  0  0  0  0  0
   26.3485   22.2460   48.8609 C   0  0  0  0  0  0  0  0  0  0  0  0
   25.2425   21.8812   48.0644 C   0  0  0  0  0  0  0  0  0  0  0  0
   22.0689   21.5353   47.7871 H   0  0  0  0  0  0  0  0  0  0  0  0
   26.1862   21.1081   45.7530 C   0  0  0  0  0  0  0  0  0  0  0  0
   26.3072   22.2402   44.7281 C   0  0  0  0  0  0  0  0  0  0  0  0
   26.3675   21.9211   42.2188 C   0  0  0  0  0  0  0  0  0  0  0  0
   27.1249   21.8214   43.5148 N   0  0  0  0  0  0  0  0  0  0  0  0
   27.6948   20.4390   43.7016 C   0  0  0  0  0  0  0  0  0  0  0  0
   27.9296   22.4597   43.4512 H   0  0  0  0  0  0  0  0  0  0  0  0
 13 14  1  0
 14 15  1  0
 14 12  1  0
 12 11  1  0
 11  1  1  0
  1  2  2  0
  2  3  1  0
  3  4  1  0
  4  5  2  0
  5  6  1  0
  6  7  2  0
  7  8  1  0
  8  9  2  0
  9  1  1  0
  9  4  1  0
 14 16  1  0
  3 10  1  0
M  CHG 1  14   1
M  END
> <minimizedAffinity>
-3.89692

> <CNNscore>
0.4639160633

> <CNNaffinity>
4.2836842537

> <CNN_VS>
1.9872698784

> <CNNaffinity_variance>
0.1122486293

$$$$
DMT_like


 16 17  0  0  0  0  0  0  0  0999 V2000
   16.1907   18.2995   45.5860 C   0  0  0  0  0  0  0  0  0  0  0  0
   16.1286   16.9666   45.2297 C   0  0  0  0  0  0  0  0  0  0  0  0
   17.4086   16.5051   45.0643 N   0  0  0  0  0  0  0  0  0  0  0  0
   18.3104   17.5111   45.3185 C   0  0  0  0  0  0  0  0  0  0  0  0
   19.7095   17.4926   45.2812 C   0  0  0  0  0  0  0  0  0  0  0  0
   20.3814   18.6814   45.5759 C   0  0  0  0  0  0  0  0  0  0  0  0
   19.6801   19.8418   45.8914 C   0  0  0  0  0  0  0  0  0  0  0  0
   18.2804   19.8435   45.9245 C   0  0  0  0  0  0  0  0  0  0  0  0
   17.5778   18.6545   45.6362 C   0  0  0  0  0  0  0  0  0  0  0  0
   17.6639   15.5648   44.7906 H   0  0  0  0  0  0  0  0  0  0  0  0
   15.0314   19.1943   45.8721 C   0  0  0  0  0  0  0  0  0  0  0  0
   14.0023   18.4983   46.7683 C   0  0  0  0  0  0  0  0  0  0  0  0
   11.7881   19.7212   46.7071 C   0  0  0  0  0  0  0  0  0  0  0  0
   13.0769   19.4963   47.4496 N   0  0  0  0  0  0  0  0  0  0  0  0
   13.7872   20.8006   47.7049 C   0  0  0  0  0  0  0  0  0  0  0  0
   12.8372   19.1120   48.3736 H   0  0  0  0  0  0  0  0  0  0  0  0
 13 14  1  0
 14 15  1  0
 14 12  1  0
 12 11  1  0
 11  1  1  0
  1  2  2  0
  2  3  1  0
  3  4  1  0
  4  5  2  0
  5  6  1  0
  6  7  2  0
  7  8  1  0
  8  9  2  0
  9  1  1  0
  9  4  1  0
 14 16  1  0
  3 10  1  0
M  CHG 1  14   1
M  END
> <minimizedAffinity>
-4.59138

> <CNNscore>
0.4498138428

> <CNNaffinity>
4.1988043785

> <CNN_VS>
1.8886803389

> <CNNaffinity_variance>
0.0157838706

$$$$
DMT_like


 16 17  0  0  0  0  0  0  0  0999 V2000
   22.5111    2.6121   54.3079 C   0  0  0  0  0  0  0  0  0  0  0  0
   23.4808    1.6384   54.1703 C   0  0  0  0  0  0  0  0  0  0  0  0
   23.2910    0.7000   55.1511 N   0  0  0  0  0  0  0  0  0  0  0  0
   22.2040    1.0361   55.9229 C   0  0  0  0  0  0  0  0  0  0  0  0
   21.6424    0.3720   57.0196 C   0  0  0  0  0  0  0  0  0  0  0  0
   20.5308    0.9565   57.6314 C   0  0  0  0  0  0  0  0  0  0  0  0
   20.0059    2.1587   57.1655 C   0  0  0  0  0  0  0  0  0  0  0  0
   20.5794    2.8104   56.0671 C   0  0  0  0  0  0  0  0  0  0  0  0
   21.6994    2.2383   55.4278 C   0  0  0  0  0  0  0  0  0  0  0  0
   23.8637   -0.1212   55.2980 H   0  0  0  0  0  0  0  0  0  0  0  0
   22.3390    3.8182   53.4463 C   0  0  0  0  0  0  0  0  0  0  0  0
   22.8894    5.0723   54.1325 C   0  0  0  0  0  0  0  0  0  0  0  0
   21.7181    7.2522   53.6053 C   0  0  0  0  0  0  0  0  0  0  0  0
   22.8137    6.2932   53.2271 N   0  0  0  0  0  0  0  0  0  0  0  0
   22.6974    5.8842   51.7814 C   0  0  0  0  0  0  0  0  0  0  0  0
   23.7072    6.7964   53.3141 H   0  0  0  0  0  0  0  0  0  0  0  0
 13 14  1  0
 14 15  1  0
 14 12  1  0
 12 11  1  0
 11  1  1  0
  1  2  2  0
  2  3  1  0
  3  4  1  0
  4  5  2  0
  5  6  1  0
  6  7  2  0
  7  8  1  0
  8  9  2  0
  9  1  1  0
  9  4  1  0
 14 16  1  0
  3 10  1  0
M  CHG 1  14   1
M  END
> <minimizedAffinity>
-3.96501

> <CNNscore>
0.4490450621

> <CNNaffinity>
4.7043743134

> <CNN_VS>
2.1124761105

> <CNNaffinity_variance>
0.6721647382

$$$$
DMT_like


 15 16  0  0  0  0  0  0  0  0999 V2000
   17.5868   14.9746   43.3922 C   0  0  0  0  0  0  0  0  0  0  0  0
   18.3705   15.3255   42.3101 C   0  0  0  0  0  0  0  0  0  0  0  0
   18.4423   16.6910   42.2551 N   0  0  0  0  0  0  0  0  0  0  0  0
   17.7201   17.2479   43.2841 C   0  0  0  0  0  0  0  0  0  0  0  0
   17.5154   18.5921   43.6183 C   0  0  0  0  0  0  0  0  0  0  0  0
   16.7209   18.8684   44.7349 C   0  0  0  0  0  0  0  0  0  0  0  0
   16.1550   17.8403   45.4845 C   0  0  0  0  0  0  0  0  0  0  0  0
   16.3701   16.5018   45.1360 C   0  0  0  0  0  0  0  0  0  0  0  0
   17.1682   16.1951   44.0145 C   0  0  0  0  0  0  0  0  0  0  0  0
   18.9509   17.2201   41.5609 H   0  0  0  0  0  0  0  0  0  0  0  0
   17.2443   13.5811   43.8274 C   0  0  0  0  0  0  0  0  0  0  0  0
   18.1545   13.0925   44.9685 C   0  0  0  0  0  0  0  0  0  0  0  0
   18.6648   11.4136   43.2766 C   0  0  0  0  0  0  0  0  0  0  0  0
   18.8612   11.8298   44.6666 N   0  0  0  0  0  0  0  0  0  0  0  0
   18.3934   10.7726   45.5677 C   0  0  0  0  0  0  0  0  0  0  0  0
 13 14  1  0
 14 15  1  0
 14 12  1  0
 12 11  1  0
 11  1  1  0
  1  2  2  0
  2  3  1  0
  3  4  1  0
  4  5  2  0
  5  6  1  0
  6  7  2  0
  7  8  1  0
  8  9  2  0
  9  1  1  0
  9  4  1  0
  3 10  1  0
M  END
> <minimizedAffinity>
-3.98405

> <CNNscore>
0.7986658216

> <CNNaffinity>
5.2584705353

> <CNN_VS>
4.1997609138

> <CNNaffinity_variance>
2.1558299065

$$$$
DMT_like


 15 16  0  0  0  0  0  0  0  0999 V2000
   19.7583    9.3093   45.3906 C   0  0  0  0  0  0  0  0  0  0  0  0
   20.7349    8.6219   44.6961 C   0  0  0  0  0  0  0  0  0  0  0  0
   21.2993    7.7050   45.5407 N   0  0  0  0  0  0  0  0  0  0  0  0
   20.7106    7.7743   46.7814 C   0  0  0  0  0  0  0  0  0  0  0  0
   20.9635    7.0338   47.9424 C   0  0  0  0  0  0  0  0  0  0  0  0
   20.2000    7.3259   49.0764 C   0  0  0  0  0  0  0  0  0  0  0  0
   19.2243    8.3192   49.0477 C   0  0  0  0  0  0  0  0  0  0  0  0
   18.9849    9.0500   47.8781 C   0  0  0  0  0  0  0  0  0  0  0  0
   19.7405    8.7750   46.7196 C   0  0  0  0  0  0  0  0  0  0  0  0
   22.0422    7.0661   45.2946 H   0  0  0  0  0  0  0  0  0  0  0  0
   18.8867   10.4035   44.8507 C   0  0  0  0  0  0  0  0  0  0  0  0
   18.8871   10.4357   43.3119 C   0  0  0  0  0  0  0  0  0  0  0  0
   18.1526   12.7592   43.3717 C   0  0  0  0  0  0  0  0  0  0  0  0
   19.0545   11.7907   42.7452 N   0  0  0  0  0  0  0  0  0  0  0  0
   18.8128   11.7565   41.2998 C   0  0  0  0  0  0  0  0  0  0  0  0
 13 14  1  0
 14 15  1  0
 14 12  1  0
 12 11  1  0
 11  1  1  0
  1  2  2  0
  2  3  1  0
  3  4  1  0
  4  5  2  0
  5  6  1  0
  6  7  2  0
  7  8  1  0
  8  9  2  0
  9  1  1  0
  9  4  1  0
  3 10  1  0
M  END
> <minimizedAffinity>
-3.83876

> <CNNscore>
0.7869111896

> <CNNaffinity>
4.2231450081

> <CNN_VS>
3.3232400417

> <CNNaffinity_variance>
0.1226692721

$$$$
DMT_like


 15 16  0  0  0  0  0  0  0  0999 V2000
   18.4365   12.8688   45.3977 C   0  0  0  0  0  0  0  0  0  0  0  0
   19.1442   13.2075   46.5348 C   0  0  0  0  0  0  0  0  0  0  0  0
   18.8956   14.5224   46.8210 N   0  0  0  0  0  0  0  0  0  0  0  0
   18.0342   15.0576   45.8924 C   0  0  0  0  0  0  0  0  0  0  0  0
   17.5082   16.3511   45.7902 C   0  0  0  0  0  0  0  0  0  0  0  0
   16.6435   16.6166   44.7243 C   0  0  0  0  0  0  0  0  0  0  0  0
   16.3203   15.6269   43.7995 C   0  0  0  0  0  0  0  0  0  0  0  0
   16.8554   14.3389   43.9170 C   0  0  0  0  0  0  0  0  0  0  0  0
   17.7298   14.0440   44.9834 C   0  0  0  0  0  0  0  0  0  0  0  0
   19.2859   15.0328   47.6006 H   0  0  0  0  0  0  0  0  0  0  0  0
   18.4155   11.5261   44.7304 C   0  0  0  0  0  0  0  0  0  0  0  0
   18.3590   10.3751   45.7508 C   0  0  0  0  0  0  0  0  0  0  0  0
   19.7980    8.4323   46.0607 C   0  0  0  0  0  0  0  0  0  0  0  0
   18.7982    9.0737   45.2045 N   0  0  0  0  0  0  0  0  0  0  0  0
   19.3498    9.2617   43.8595 C   0  0  0  0  0  0  0  0  0  0  0  0
 13 14  1  0
 14 15  1  0
 14 12  1  0
 12 11  1  0
 11  1  1  0
  1  2  2  0
  2  3  1  0
  3  4  1  0
  4  5  2  0
  5  6  1  0
  6  7  2  0
  7  8  1  0
  8  9  2  0
  9  1  1  0
  9  4  1  0
  3 10  1  0
M  END
> <minimizedAffinity>
-4.06109

> <CNNscore>
0.7611238956

> <CNNaffinity>
5.9698944092

> <CNN_VS>
4.5438294411

> <CNNaffinity_variance>
6.4116120338

$$$$
DMT_like


 15 16  0  0  0  0  0  0  0  0999 V2000
   18.4500   18.9391   42.2969 C   0  0  0  0  0  0  0  0  0  0  0  0
   18.4590   19.8308   43.3520 C   0  0  0  0  0  0  0  0  0  0  0  0
   17.7878   19.2636   44.4009 N   0  0  0  0  0  0  0  0  0  0  0  0
   17.3367   18.0111   44.0567 C   0  0  0  0  0  0  0  0  0  0  0  0
   16.6121   17.0759   44.8056 C   0  0  0  0  0  0  0  0  0  0  0  0
   16.2839   15.8656   44.1879 C   0  0  0  0  0  0  0  0  0  0  0  0
   16.6656   15.6040   42.8744 C   0  0  0  0  0  0  0  0  0  0  0  0
   17.3897   16.5506   42.1403 C   0  0  0  0  0  0  0  0  0  0  0  0
   17.7346   17.7796   42.7397 C   0  0  0  0  0  0  0  0  0  0  0  0
   17.6409   19.6973   45.3014 H   0  0  0  0  0  0  0  0  0  0  0  0
   19.0725   19.1499   40.9491 C   0  0  0  0  0  0  0  0  0  0  0  0
   20.1453   20.2532   40.9749 C   0  0  0  0  0  0  0  0  0  0  0  0
   21.8306   21.5147   39.7460 C   0  0  0  0  0  0  0  0  0  0  0  0
   20.8203   20.4572   39.6757 N   0  0  0  0  0  0  0  0  0  0  0  0
   19.8286   20.7915   38.6493 C   0  0  0  0  0  0  0  0  0  0  0  0
 13 14  1  0
 14 15  1  0
 14 12  1  0
 12 11  1  0
 11  1  1  0
  1  2  2  0
  2  3  1  0
  3  4  1  0
  4  5  2  0
  5  6  1  0
  6  7  2  0
  7  8  1  0
  8  9  2  0
  9  1  1  0
  9  4  1  0
  3 10  1  0
M  END
> <minimizedAffinity>
-3.88747

> <CNNscore>
0.7229777575

> <CNNaffinity>
4.6866297722

> <CNN_VS>
3.3883290291

> <CNNaffinity_variance>
0.0760366321

$$$$
DMT_like


 15 16  0  0  0  0  0  0  0  0999 V2000
   19.2069    9.8752   39.2189 C   0  0  0  0  0  0  0  0  0  0  0  0
   18.7191    8.6262   38.8863 C   0  0  0  0  0  0  0  0  0  0  0  0
   18.7414    8.5041   37.5235 N   0  0  0  0  0  0  0  0  0  0  0  0
   19.2374    9.6513   36.9504 C   0  0  0  0  0  0  0  0  0  0  0  0
   19.4403    9.9713   35.6025 C   0  0  0  0  0  0  0  0  0  0  0  0
   19.9654   11.2330   35.3080 C   0  0  0  0  0  0  0  0  0  0  0  0
   20.2736   12.1361   36.3223 C   0  0  0  0  0  0  0  0  0  0  0  0
   20.0642   11.7995   37.6647 C   0  0  0  0  0  0  0  0  0  0  0  0
   19.5362   10.5328   37.9896 C   0  0  0  0  0  0  0  0  0  0  0  0
   18.4383    7.6908   37.0065 H   0  0  0  0  0  0  0  0  0  0  0  0
   19.3607   10.4300   40.6035 C   0  0  0  0  0  0  0  0  0  0  0  0
   18.7803   11.8504   40.7240 C   0  0  0  0  0  0  0  0  0  0  0  0
   18.6380   11.5532   43.1392 C   0  0  0  0  0  0  0  0  0  0  0  0
   18.9889   12.4677   42.0508 N   0  0  0  0  0  0  0  0  0  0  0  0
   18.1892   13.6915   42.1591 C   0  0  0  0  0  0  0  0  0  0  0  0
 13 14  1  0
 14 15  1  0
 14 12  1  0
 12 11  1  0
 11  1  1  0
  1  2  2  0
  2  3  1  0
  3  4  1  0
  4  5  2  0
  5  6  1  0
  6  7  2  0
  7  8  1  0
  8  9  2  0
  9  1  1  0
  9  4  1  0
  3 10  1  0
M  END
> <minimizedAffinity>
-3.85618

> <CNNscore>
0.7098233700

> <CNNaffinity>
4.4579753876

> <CNN_VS>
3.1643750668

> <CNNaffinity_variance>
0.0653190240

$$$$
DMT_like


 15 16  0  0  0  0  0  0  0  0999 V2000
   18.9149   11.5744   40.9995 C   0  0  0  0  0  0  0  0  0  0  0  0
   19.2005   10.5572   41.8896 C   0  0  0  0  0  0  0  0  0  0  0  0
   19.4407    9.4149   41.1754 N   0  0  0  0  0  0  0  0  0  0  0  0
   19.3199    9.6610   39.8280 C   0  0  0  0  0  0  0  0  0  0  0  0
   19.4775    8.7992   38.7358 C   0  0  0  0  0  0  0  0  0  0  0  0
   19.2889    9.3321   37.4573 C   0  0  0  0  0  0  0  0  0  0  0  0
   18.9557   10.6728   37.2812 C   0  0  0  0  0  0  0  0  0  0  0  0
   18.8020   11.5203   38.3846 C   0  0  0  0  0  0  0  0  0  0  0  0
   18.9873   11.0084   39.6855 C   0  0  0  0  0  0  0  0  0  0  0  0
   19.6735    8.5164   41.5744 H   0  0  0  0  0  0  0  0  0  0  0  0
   18.5924   12.9967   41.3483 C   0  0  0  0  0  0  0  0  0  0  0  0
   18.8159   13.2895   42.8427 C   0  0  0  0  0  0  0  0  0  0  0  0
   17.0419   14.5555   43.9344 C   0  0  0  0  0  0  0  0  0  0  0  0
   17.5813   13.2237   43.6529 N   0  0  0  0  0  0  0  0  0  0  0  0
   17.8525   12.5261   44.9133 C   0  0  0  0  0  0  0  0  0  0  0  0
 13 14  1  0
 14 15  1  0
 14 12  1  0
 12 11  1  0
 11  1  1  0
  1  2  2  0
  2  3  1  0
  3  4  1  0
  4  5  2  0
  5  6  1  0
  6  7  2  0
  7  8  1  0
  8  9  2  0
  9  1  1  0
  9  4  1  0
  3 10  1  0
M  END
> <minimizedAffinity>
-3.94931

> <CNNscore>
0.7020490170

> <CNNaffinity>
4.5368723869

> <CNN_VS>
3.1851067543

> <CNNaffinity_variance>
0.0018140730

$$$$
DMT_like


 15 16  0  0  0  0  0  0  0  0999 V2000
   18.7942    9.9620   45.9062 C   0  0  0  0  0  0  0  0  0  0  0  0
   19.4270    9.5508   44.7491 C   0  0  0  0  0  0  0  0  0  0  0  0
   20.2361    8.4902   45.0544 N   0  0  0  0  0  0  0  0  0  0  0  0
   20.1472    8.1931   46.3939 C   0  0  0  0  0  0  0  0  0  0  0  0
   20.7880    7.1978   47.1417 C   0  0  0  0  0  0  0  0  0  0  0  0
   20.5036    7.1301   48.5087 C   0  0  0  0  0  0  0  0  0  0  0  0
   19.6144    8.0232   49.1012 C   0  0  0  0  0  0  0  0  0  0  0  0
   18.9826    9.0122   48.3385 C   0  0  0  0  0  0  0  0  0  0  0  0
   19.2511    9.1022   46.9570 C   0  0  0  0  0  0  0  0  0  0  0  0
   20.8180    7.9927   44.3952 H   0  0  0  0  0  0  0  0  0  0  0  0
   17.8166   11.0921   46.0316 C   0  0  0  0  0  0  0  0  0  0  0  0
   18.4971   12.3967   46.4829 C   0  0  0  0  0  0  0  0  0  0  0  0
   18.3833   14.7714   45.9444 C   0  0  0  0  0  0  0  0  0  0  0  0
   18.5868   13.4197   45.4195 N   0  0  0  0  0  0  0  0  0  0  0  0
   17.5927   13.1410   44.3789 C   0  0  0  0  0  0  0  0  0  0  0  0
 13 14  1  0
 14 15  1  0
 14 12  1  0
 12 11  1  0
 11  1  1  0
  1  2  2  0
  2  3  1  0
  3  4  1  0
  4  5  2  0
  5  6  1  0
  6  7  2  0
  7  8  1  0
  8  9  2  0
  9  1  1  0
  9  4  1  0
  3 10  1  0
M  END
> <minimizedAffinity>
-4.00300

> <CNNscore>
0.6734054685

> <CNNaffinity>
4.6268215179

> <CNN_VS>
3.1157269478

> <CNNaffinity_variance>
0.2615765333

$$$$
DMT_like


 15 16  0  0  0  0  0  0  0  0999 V2000
   18.5541   12.1309   42.4668 C   0  0  0  0  0  0  0  0  0  0  0  0
   18.0085   13.2662   43.0342 C   0  0  0  0  0  0  0  0  0  0  0  0
   17.7562   13.0092   44.3544 N   0  0  0  0  0  0  0  0  0  0  0  0
   18.1275   11.7231   44.6688 C   0  0  0  0  0  0  0  0  0  0  0  0
   18.0554   11.0356   45.8864 C   0  0  0  0  0  0  0  0  0  0  0  0
   18.5114    9.7144   45.9125 C   0  0  0  0  0  0  0  0  0  0  0  0
   19.0179    9.1078   44.7658 C   0  0  0  0  0  0  0  0  0  0  0  0
   19.0825    9.8101   43.5568 C   0  0  0  0  0  0  0  0  0  0  0  0
   18.6298   11.1446   43.5029 C   0  0  0  0  0  0  0  0  0  0  0  0
   17.3548   13.6654   45.0092 H   0  0  0  0  0  0  0  0  0  0  0  0
   18.9835   11.9687   41.0392 C   0  0  0  0  0  0  0  0  0  0  0  0
   19.3046   10.5031   40.6960 C   0  0  0  0  0  0  0  0  0  0  0  0
   18.9042    8.6203   39.2005 C   0  0  0  0  0  0  0  0  0  0  0  0
   18.7638   10.0652   39.3918 N   0  0  0  0  0  0  0  0  0  0  0  0
   19.4501   10.7741   38.3078 C   0  0  0  0  0  0  0  0  0  0  0  0
 13 14  1  0
 14 15  1  0
 14 12  1  0
 12 11  1  0
 11  1  1  0
  1  2  2  0
  2  3  1  0
  3  4  1  0
  4  5  2  0
  5  6  1  0
  6  7  2  0
  7  8  1  0
  8  9  2  0
  9  1  1  0
  9  4  1  0
  3 10  1  0
M  END
> <minimizedAffinity>
-4.93794

> <CNNscore>
0.6701753736

> <CNNaffinity>
3.8377647400

> <CNN_VS>
2.5719754696

> <CNNaffinity_variance>
0.4769116640

$$$$
DMT_like


 15 16  0  0  0  0  0  0  0  0999 V2000
   19.0712    9.5275   45.1023 C   0  0  0  0  0  0  0  0  0  0  0  0
   18.3354   10.5049   45.7439 C   0  0  0  0  0  0  0  0  0  0  0  0
   18.4257   10.2959   47.0932 N   0  0  0  0  0  0  0  0  0  0  0  0
   19.2103    9.1972   47.3538 C   0  0  0  0  0  0  0  0  0  0  0  0
   19.5761    8.6192   48.5755 C   0  0  0  0  0  0  0  0  0  0  0  0
   20.3955    7.4872   48.5372 C   0  0  0  0  0  0  0  0  0  0  0  0
   20.8294    6.9567   47.3249 C   0  0  0  0  0  0  0  0  0  0  0  0
   20.4539    7.5474   46.1128 C   0  0  0  0  0  0  0  0  0  0  0  0
   19.6285    8.6908   46.1229 C   0  0  0  0  0  0  0  0  0  0  0  0
   17.9820   10.8633   47.8016 H   0  0  0  0  0  0  0  0  0  0  0  0
   19.2492    9.3770   43.6210 C   0  0  0  0  0  0  0  0  0  0  0  0
   18.9041   10.6716   42.8636 C   0  0  0  0  0  0  0  0  0  0  0  0
   18.9158   11.8114   40.7090 C   0  0  0  0  0  0  0  0  0  0  0  0
   19.5298   10.7640   41.5275 N   0  0  0  0  0  0  0  0  0  0  0  0
   19.4211    9.4744   40.8393 C   0  0  0  0  0  0  0  0  0  0  0  0
 13 14  1  0
 14 15  1  0
 14 12  1  0
 12 11  1  0
 11  1  1  0
  1  2  2  0
  2  3  1  0
  3  4  1  0
  4  5  2  0
  5  6  1  0
  6  7  2  0
  7  8  1  0
  8  9  2  0
  9  1  1  0
  9  4  1  0
  3 10  1  0
M  END
> <minimizedAffinity>
-4.04620

> <CNNscore>
0.6658387780

> <CNNaffinity>
4.2199807167

> <CNN_VS>
2.8098268509

> <CNNaffinity_variance>
0.0946765170

$$$$
DMT_like


 15 16  0  0  0  0  0  0  0  0999 V2000
   17.9672   12.4126   44.1899 C   0  0  0  0  0  0  0  0  0  0  0  0
   18.6863   11.8024   43.1804 C   0  0  0  0  0  0  0  0  0  0  0  0
   18.7163   12.6454   42.1029 N   0  0  0  0  0  0  0  0  0  0  0  0
   18.0300   13.8032   42.3844 C   0  0  0  0  0  0  0  0  0  0  0  0
   17.8037   14.9336   41.5898 C   0  0  0  0  0  0  0  0  0  0  0  0
   17.0577   15.9772   42.1452 C   0  0  0  0  0  0  0  0  0  0  0  0
   16.5590   15.8909   43.4426 C   0  0  0  0  0  0  0  0  0  0  0  0
   16.7948   14.7531   44.2230 C   0  0  0  0  0  0  0  0  0  0  0  0
   17.5451   13.6859   43.6873 C   0  0  0  0  0  0  0  0  0  0  0  0
   19.1747   12.4512   41.2239 H   0  0  0  0  0  0  0  0  0  0  0  0
   17.6865   11.8458   45.5495 C   0  0  0  0  0  0  0  0  0  0  0  0
   18.8817   11.0476   46.1002 C   0  0  0  0  0  0  0  0  0  0  0  0
   19.1460    9.1829   47.6477 C   0  0  0  0  0  0  0  0  0  0  0  0
   18.5731    9.6285   46.3760 N   0  0  0  0  0  0  0  0  0  0  0  0
   19.0817    8.7901   45.2865 C   0  0  0  0  0  0  0  0  0  0  0  0
 13 14  1  0
 14 15  1  0
 14 12  1  0
 12 11  1  0
 11  1  1  0
  1  2  2  0
  2  3  1  0
  3  4  1  0
  4  5  2  0
  5  6  1  0
  6  7  2  0
  7  8  1  0
  8  9  2  0
  9  1  1  0
  9  4  1  0
  3 10  1  0
M  END
> <minimizedAffinity>
-4.35619

> <CNNscore>
0.6427772045

> <CNNaffinity>
5.0894012451

> <CNN_VS>
3.2713510990

> <CNNaffinity_variance>
0.6274773479

$$$$
DMT_like


 15 16  0  0  0  0  0  0  0  0999 V2000
   18.1979   17.3763   41.9874 C   0  0  0  0  0  0  0  0  0  0  0  0
   18.0940   16.0123   41.7946 C   0  0  0  0  0  0  0  0  0  0  0  0
   17.3797   15.4835   42.8351 N   0  0  0  0  0  0  0  0  0  0  0  0
   17.0087   16.4759   43.7115 C   0  0  0  0  0  0  0  0  0  0  0  0
   16.2746   16.4006   44.9014 C   0  0  0  0  0  0  0  0  0  0  0  0
   16.0465   17.5906   45.5985 C   0  0  0  0  0  0  0  0  0  0  0  0
   16.5344   18.8052   45.1229 C   0  0  0  0  0  0  0  0  0  0  0  0
   17.2665   18.8621   43.9313 C   0  0  0  0  0  0  0  0  0  0  0  0
   17.5104   17.6763   43.2079 C   0  0  0  0  0  0  0  0  0  0  0  0
   17.1540   14.5054   42.9493 H   0  0  0  0  0  0  0  0  0  0  0  0
   18.8969   18.3509   41.0874 C   0  0  0  0  0  0  0  0  0  0  0  0
   19.5062   19.5266   41.8719 C   0  0  0  0  0  0  0  0  0  0  0  0
   18.6175   21.7757   42.1779 C   0  0  0  0  0  0  0  0  0  0  0  0
   19.2643   20.8457   41.2501 N   0  0  0  0  0  0  0  0  0  0  0  0
   18.4317   20.6846   40.0544 C   0  0  0  0  0  0  0  0  0  0  0  0
 13 14  1  0
 14 15  1  0
 14 12  1  0
 12 11  1  0
 11  1  1  0
  1  2  2  0
  2  3  1  0
  3  4  1  0
  4  5  2  0
  5  6  1  0
  6  7  2  0
  7  8  1  0
  8  9  2  0
  9  1  1  0
  9  4  1  0
  3 10  1  0
M  END
> <minimizedAffinity>
-4.07165

> <CNNscore>
0.5948290229

> <CNNaffinity>
4.6343417168

> <CNN_VS>
2.7566409111

> <CNNaffinity_variance>
0.1190724447

$$$$
DMT_like


 15 16  0  0  0  0  0  0  0  0999 V2000
   18.7428   10.0235   44.8139 C   0  0  0  0  0  0  0  0  0  0  0  0
   19.2621    8.9944   44.0525 C   0  0  0  0  0  0  0  0  0  0  0  0
   19.3936    9.4360   42.7640 N   0  0  0  0  0  0  0  0  0  0  0  0
   18.9711   10.7405   42.6618 C   0  0  0  0  0  0  0  0  0  0  0  0
   18.9268   11.5899   41.5497 C   0  0  0  0  0  0  0  0  0  0  0  0
   18.4399   12.8859   41.7431 C   0  0  0  0  0  0  0  0  0  0  0  0
   18.0147   13.3122   42.9989 C   0  0  0  0  0  0  0  0  0  0  0  0
   18.0659   12.4495   44.1000 C   0  0  0  0  0  0  0  0  0  0  0  0
   18.5535   11.1369   43.9326 C   0  0  0  0  0  0  0  0  0  0  0  0
   19.7490    8.8875   41.9936 H   0  0  0  0  0  0  0  0  0  0  0  0
   18.4386    9.9779   46.2815 C   0  0  0  0  0  0  0  0  0  0  0  0
   19.4918    9.1738   47.0646 C   0  0  0  0  0  0  0  0  0  0  0  0
   19.2526   10.0778   49.3157 C   0  0  0  0  0  0  0  0  0  0  0  0
   19.1076    8.8952   48.4646 N   0  0  0  0  0  0  0  0  0  0  0  0
   19.9284    7.8030   48.9956 C   0  0  0  0  0  0  0  0  0  0  0  0
 13 14  1  0
 14 15  1  0
 14 12  1  0
 12 11  1  0
 11  1  1  0
  1  2  2  0
  2  3  1  0
  3  4  1  0
  4  5  2  0
  5  6  1  0
  6  7  2  0
  7  8  1  0
  8  9  2  0
  9  1  1  0
  9  4  1  0
  3 10  1  0
M  END
> <minimizedAffinity>
-4.43300

> <CNNscore>
0.5938555002

> <CNNaffinity>
4.4568538666

> <CNN_VS>
2.6467270851

> <CNNaffinity_variance>
0.2195173949

$$$$
DMT_like


 15 16  0  0  0  0  0  0  0  0999 V2000
   19.1222   10.4749   42.2414 C   0  0  0  0  0  0  0  0  0  0  0  0
   18.8223   11.7504   41.8039 C   0  0  0  0  0  0  0  0  0  0  0  0
   18.3633   12.4747   42.8704 N   0  0  0  0  0  0  0  0  0  0  0  0
   18.3563   11.6989   44.0056 C   0  0  0  0  0  0  0  0  0  0  0  0
   17.9726   12.0179   45.3138 C   0  0  0  0  0  0  0  0  0  0  0  0
   18.0711   11.0135   46.2811 C   0  0  0  0  0  0  0  0  0  0  0  0
   18.5344    9.7425   45.9506 C   0  0  0  0  0  0  0  0  0  0  0  0
   18.9139    9.4409   44.6374 C   0  0  0  0  0  0  0  0  0  0  0  0
   18.8250   10.4361   43.6422 C   0  0  0  0  0  0  0  0  0  0  0  0
   18.0698   13.4407   42.8355 H   0  0  0  0  0  0  0  0  0  0  0  0
   19.6569    9.3508   41.4053 C   0  0  0  0  0  0  0  0  0  0  0  0
   19.3313    9.5362   39.9124 C   0  0  0  0  0  0  0  0  0  0  0  0
   20.6701    7.7588   38.9172 C   0  0  0  0  0  0  0  0  0  0  0  0
   19.3181    8.2729   39.1450 N   0  0  0  0  0  0  0  0  0  0  0  0
   18.6478    8.4819   37.8582 C   0  0  0  0  0  0  0  0  0  0  0  0
 13 14  1  0
 14 15  1  0
 14 12  1  0
 12 11  1  0
 11  1  1  0
  1  2  2  0
  2  3  1  0
  3  4  1  0
  4  5  2  0
  5  6  1  0
  6  7  2  0
  7  8  1  0
  8  9  2  0
  9  1  1  0
  9  4  1  0
  3 10  1  0
M  END
> <minimizedAffinity>
-4.52200

> <CNNscore>
0.5751438141

> <CNNaffinity>
3.8006069660

> <CNN_VS>
2.1858956814

> <CNNaffinity_variance>
0.3140262365

$$$$
DMT_like


 15 16  0  0  0  0  0  0  0  0999 V2000
   19.3114    9.8322   42.3189 C   0  0  0  0  0  0  0  0  0  0  0  0
   19.1057   11.0236   41.6506 C   0  0  0  0  0  0  0  0  0  0  0  0
   18.6309   11.9432   42.5459 N   0  0  0  0  0  0  0  0  0  0  0  0
   18.5209   11.3793   43.7951 C   0  0  0  0  0  0  0  0  0  0  0  0
   18.0860   11.9392   45.0025 C   0  0  0  0  0  0  0  0  0  0  0  0
   18.0776   11.1163   46.1325 C   0  0  0  0  0  0  0  0  0  0  0  0
   18.4876    9.7876   46.0551 C   0  0  0  0  0  0  0  0  0  0  0  0
   18.9194    9.2442   44.8396 C   0  0  0  0  0  0  0  0  0  0  0  0
   18.9384   10.0527   43.6843 C   0  0  0  0  0  0  0  0  0  0  0  0
   18.3930   12.9003   42.3271 H   0  0  0  0  0  0  0  0  0  0  0  0
   19.8275    8.5563   41.7236 C   0  0  0  0  0  0  0  0  0  0  0  0
   21.3657    8.5016   41.7201 C   0  0  0  0  0  0  0  0  0  0  0  0
   22.1270    6.1988   41.9627 C   0  0  0  0  0  0  0  0  0  0  0  0
   21.9172    7.3129   41.0361 N   0  0  0  0  0  0  0  0  0  0  0  0
   23.1851    7.6587   40.3869 C   0  0  0  0  0  0  0  0  0  0  0  0
 13 14  1  0
 14 15  1  0
 14 12  1  0
 12 11  1  0
 11  1  1  0
  1  2  2  0
  2  3  1  0
  3  4  1  0
  4  5  2  0
  5  6  1  0
  6  7  2  0
  7  8  1  0
  8  9  2  0
  9  1  1  0
  9  4  1  0
  3 10  1  0
M  END
> <minimizedAffinity>
-4.01871

> <CNNscore>
0.5683422089

> <CNNaffinity>
3.6443145275

> <CNN_VS>
2.0712177753

> <CNNaffinity_variance>
0.4655603468

$$$$
DMT_like


 15 16  0  0  0  0  0  0  0  0999 V2000
   18.9774   10.9673   42.1568 C   0  0  0  0  0  0  0  0  0  0  0  0
   18.5812   12.2881   42.0730 C   0  0  0  0  0  0  0  0  0  0  0  0
   18.2016   12.7037   43.3203 N   0  0  0  0  0  0  0  0  0  0  0  0
   18.3418   11.6796   44.2270 C   0  0  0  0  0  0  0  0  0  0  0  0
   18.0784   11.6497   45.6018 C   0  0  0  0  0  0  0  0  0  0  0  0
   18.3162   10.4513   46.2812 C   0  0  0  0  0  0  0  0  0  0  0  0
   18.7974    9.3298   45.6102 C   0  0  0  0  0  0  0  0  0  0  0  0
   19.0552    9.3776   44.2353 C   0  0  0  0  0  0  0  0  0  0  0  0
   18.8246   10.5744   43.5259 C   0  0  0  0  0  0  0  0  0  0  0  0
   17.8654   13.6285   43.5489 H   0  0  0  0  0  0  0  0  0  0  0  0
   19.4724   10.1141   41.0274 C   0  0  0  0  0  0  0  0  0  0  0  0
   19.2693   10.7913   39.6602 C   0  0  0  0  0  0  0  0  0  0  0  0
   18.7707    8.5469   38.8505 C   0  0  0  0  0  0  0  0  0  0  0  0
   18.4921    9.9768   38.7024 N   0  0  0  0  0  0  0  0  0  0  0  0
   18.7971   10.3982   37.3320 C   0  0  0  0  0  0  0  0  0  0  0  0
 13 14  1  0
 14 15  1  0
 14 12  1  0
 12 11  1  0
 11  1  1  0
  1  2  2  0
  2  3  1  0
  3  4  1  0
  4  5  2  0
  5  6  1  0
  6  7  2  0
  7  8  1  0
  8  9  2  0
  9  1  1  0
  9  4  1  0
  3 10  1  0
M  END
> <minimizedAffinity>
-4.86475

> <CNNscore>
0.5663161278

> <CNNaffinity>
3.9625480175

> <CNN_VS>
2.2440547943

> <CNNaffinity_variance>
0.1670687646

$$$$
DMT_like


 15 16  0  0  0  0  0  0  0  0999 V2000
   18.7062   10.4299   44.5007 C   0  0  0  0  0  0  0  0  0  0  0  0
   18.2654   11.6179   45.0510 C   0  0  0  0  0  0  0  0  0  0  0  0
   18.1540   12.5419   44.0479 N   0  0  0  0  0  0  0  0  0  0  0  0
   18.5125   11.9835   42.8436 C   0  0  0  0  0  0  0  0  0  0  0  0
   18.5499   12.5482   41.5630 C   0  0  0  0  0  0  0  0  0  0  0  0
   18.9635   11.7314   40.5065 C   0  0  0  0  0  0  0  0  0  0  0  0
   19.3248   10.4044   40.7249 C   0  0  0  0  0  0  0  0  0  0  0  0
   19.2816    9.8561   42.0121 C   0  0  0  0  0  0  0  0  0  0  0  0
   18.8673   10.6580   43.0957 C   0  0  0  0  0  0  0  0  0  0  0  0
   17.8525   13.4986   44.1680 H   0  0  0  0  0  0  0  0  0  0  0  0
   18.9639    9.1499   45.2382 C   0  0  0  0  0  0  0  0  0  0  0  0
   18.8127    9.3201   46.7604 C   0  0  0  0  0  0  0  0  0  0  0  0
   20.5618    8.2979   48.1159 C   0  0  0  0  0  0  0  0  0  0  0  0
   20.0951    9.5245   47.4665 N   0  0  0  0  0  0  0  0  0  0  0  0
   19.9461   10.5852   48.4672 C   0  0  0  0  0  0  0  0  0  0  0  0
 13 14  1  0
 14 15  1  0
 14 12  1  0
 12 11  1  0
 11  1  1  0
  1  2  2  0
  2  3  1  0
  3  4  1  0
  4  5  2  0
  5  6  1  0
  6  7  2  0
  7  8  1  0
  8  9  2  0
  9  1  1  0
  9  4  1  0
  3 10  1  0
M  END
> <minimizedAffinity>
-4.18405

> <CNNscore>
0.5648055673

> <CNNaffinity>
4.2702016830

> <CNN_VS>
2.4118337631

> <CNNaffinity_variance>
0.0454985648

$$$$
DMT_like


 15 16  0  0  0  0  0  0  0  0999 V2000
   18.2796   18.9823   42.4403 C   0  0  0  0  0  0  0  0  0  0  0  0
   18.2366   19.7763   43.5699 C   0  0  0  0  0  0  0  0  0  0  0  0
   17.6054   19.0780   44.5633 N   0  0  0  0  0  0  0  0  0  0  0  0
   17.2320   17.8352   44.1089 C   0  0  0  0  0  0  0  0  0  0  0  0
   16.5696   16.7942   44.7707 C   0  0  0  0  0  0  0  0  0  0  0  0
   16.3152   15.6250   44.0480 C   0  0  0  0  0  0  0  0  0  0  0  0
   16.7081   15.5046   42.7173 C   0  0  0  0  0  0  0  0  0  0  0  0
   17.3695   16.5555   42.0712 C   0  0  0  0  0  0  0  0  0  0  0  0
   17.6391   17.7460   42.7775 C   0  0  0  0  0  0  0  0  0  0  0  0
   17.4349   19.4206   45.4982 H   0  0  0  0  0  0  0  0  0  0  0  0
   18.8832   19.3496   41.1177 C   0  0  0  0  0  0  0  0  0  0  0  0
   18.6492   20.8299   40.7674 C   0  0  0  0  0  0  0  0  0  0  0  0
   17.2457   21.4378   38.8694 C   0  0  0  0  0  0  0  0  0  0  0  0
   17.2778   21.1208   40.2986 N   0  0  0  0  0  0  0  0  0  0  0  0
   16.7196   22.2397   41.0635 C   0  0  0  0  0  0  0  0  0  0  0  0
 13 14  1  0
 14 15  1  0
 14 12  1  0
 12 11  1  0
 11  1  1  0
  1  2  2  0
  2  3  1  0
  3  4  1  0
  4  5  2  0
  5  6  1  0
  6  7  2  0
  7  8  1  0
  8  9  2  0
  9  1  1  0
  9  4  1  0
  3 10  1  0
M  END
> <minimizedAffinity>
-3.93787

> <CNNscore>
0.5598772764

> <CNNaffinity>
4.7154383659

> <CNN_VS>
2.6400668621

> <CNNaffinity_variance>
0.4886778593

$$$$
DMT_like


 15 16  0  0  0  0  0  0  0  0999 V2000
   18.4954   17.9746   41.9893 C   0  0  0  0  0  0  0  0  0  0  0  0
   19.7020   18.1367   42.6423 C   0  0  0  0  0  0  0  0  0  0  0  0
   19.9230   19.4764   42.8124 N   0  0  0  0  0  0  0  0  0  0  0  0
   18.8814   20.2021   42.2839 C   0  0  0  0  0  0  0  0  0  0  0  0
   18.6813   21.5869   42.2328 C   0  0  0  0  0  0  0  0  0  0  0  0
   17.5118   22.0505   41.6231 C   0  0  0  0  0  0  0  0  0  0  0  0
   16.5824   21.1629   41.0867 C   0  0  0  0  0  0  0  0  0  0  0  0
   16.7987   19.7813   41.1465 C   0  0  0  0  0  0  0  0  0  0  0  0
   17.9699   19.2868   41.7568 C   0  0  0  0  0  0  0  0  0  0  0  0
   20.7329   19.8810   43.2608 H   0  0  0  0  0  0  0  0  0  0  0  0
   17.8621   16.6718   41.6018 C   0  0  0  0  0  0  0  0  0  0  0  0
   16.8187   16.2076   42.6338 C   0  0  0  0  0  0  0  0  0  0  0  0
   17.7918   14.8837   44.4344 C   0  0  0  0  0  0  0  0  0  0  0  0
   17.3175   16.2072   44.0253 N   0  0  0  0  0  0  0  0  0  0  0  0
   16.2552   16.6515   44.9324 C   0  0  0  0  0  0  0  0  0  0  0  0
 13 14  1  0
 14 15  1  0
 14 12  1  0
 12 11  1  0
 11  1  1  0
  1  2  2  0
  2  3  1  0
  3  4  1  0
  4  5  2  0
  5  6  1  0
  6  7  2  0
  7  8  1  0
  8  9  2  0
  9  1  1  0
  9  4  1  0
  3 10  1  0
M  END
> <minimizedAffinity>
-3.96844

> <CNNscore>
0.5487025976

> <CNNaffinity>
4.4057579041

> <CNN_VS>
2.4174509048

> <CNNaffinity_variance>
0.0067289346

$$$$
DMT_like


 15 16  0  0  0  0  0  0  0  0999 V2000
   18.9537   11.1913   42.0204 C   0  0  0  0  0  0  0  0  0  0  0  0
   18.5506   12.5011   42.1945 C   0  0  0  0  0  0  0  0  0  0  0  0
   18.2146   12.6771   43.5094 N   0  0  0  0  0  0  0  0  0  0  0  0
   18.3905   11.5054   44.2071 C   0  0  0  0  0  0  0  0  0  0  0  0
   18.1766   11.2212   45.5613 C   0  0  0  0  0  0  0  0  0  0  0  0
   18.4424    9.9208   46.0003 C   0  0  0  0  0  0  0  0  0  0  0  0
   18.9027    8.9462   45.1184 C   0  0  0  0  0  0  0  0  0  0  0  0
   19.1109    9.2479   43.7675 C   0  0  0  0  0  0  0  0  0  0  0  0
   18.8513   10.5523   43.2985 C   0  0  0  0  0  0  0  0  0  0  0  0
   17.8840   13.5410   43.9155 H   0  0  0  0  0  0  0  0  0  0  0  0
   19.4105   10.5646   40.7370 C   0  0  0  0  0  0  0  0  0  0  0  0
   20.7408   11.1618   40.2445 C   0  0  0  0  0  0  0  0  0  0  0  0
   20.8030   11.6200   37.8512 C   0  0  0  0  0  0  0  0  0  0  0  0
   20.5797   12.1804   39.1854 N   0  0  0  0  0  0  0  0  0  0  0  0
   21.5124   13.2873   39.4167 C   0  0  0  0  0  0  0  0  0  0  0  0
 13 14  1  0
 14 15  1  0
 14 12  1  0
 12 11  1  0
 11  1  1  0
  1  2  2  0
  2  3  1  0
  3  4  1  0
  4  5  2  0
  5  6  1  0
  6  7  2  0
  7  8  1  0
  8  9  2  0
  9  1  1  0
  9  4  1  0
  3 10  1  0
M  END
> <minimizedAffinity>
-4.17421

> <CNNscore>
0.5331038237

> <CNNaffinity>
3.7989203930

> <CNN_VS>
2.0252189636

> <CNNaffinity_variance>
0.2928956449

$$$$
DMT_like


 15 16  0  0  0  0  0  0  0  0999 V2000
   22.5248    2.6033   54.3007 C   0  0  0  0  0  0  0  0  0  0  0  0
   23.5106    1.6436   54.1753 C   0  0  0  0  0  0  0  0  0  0  0  0
   23.3298    0.7095   55.1589 N   0  0  0  0  0  0  0  0  0  0  0  0
   22.2398    1.0356   55.9312 C   0  0  0  0  0  0  0  0  0  0  0  0
   21.6866    0.3755   57.0351 C   0  0  0  0  0  0  0  0  0  0  0  0
   20.5601    0.9470   57.6340 C   0  0  0  0  0  0  0  0  0  0  0  0
   20.0117    2.1308   57.1470 C   0  0  0  0  0  0  0  0  0  0  0  0
   20.5780    2.7775   56.0422 C   0  0  0  0  0  0  0  0  0  0  0  0
   21.7144    2.2220   55.4187 C   0  0  0  0  0  0  0  0  0  0  0  0
   23.9102   -0.1047   55.3028 H   0  0  0  0  0  0  0  0  0  0  0  0
   22.3427    3.8101   53.4295 C   0  0  0  0  0  0  0  0  0  0  0  0
   22.6688    5.1158   54.1764 C   0  0  0  0  0  0  0  0  0  0  0  0
   22.6550    6.1893   51.9880 C   0  0  0  0  0  0  0  0  0  0  0  0
   22.3413    6.3370   53.4106 N   0  0  0  0  0  0  0  0  0  0  0  0
   23.0772    7.4790   53.9609 C   0  0  0  0  0  0  0  0  0  0  0  0
 13 14  1  0
 14 15  1  0
 14 12  1  0
 12 11  1  0
 11  1  1  0
  1  2  2  0
  2  3  1  0
  3  4  1  0
  4  5  2  0
  5  6  1  0
  6  7  2  0
  7  8  1  0
  8  9  2  0
  9  1  1  0
  9  4  1  0
  3 10  1  0
M  END
> <minimizedAffinity>
-3.87678

> <CNNscore>
0.5277745724

> <CNNaffinity>
4.3835873604

> <CNN_VS>
2.3135459423

> <CNNaffinity_variance>
0.2287549376

$$$$
Tryptamine_like


 16 17  0  0  0  0  0  0  0  0999 V2000
   18.4501   13.2220   44.1268 C   0  0  0  0  0  0  0  0  0  0  0  0
   19.3391   12.9497   45.1481 C   0  0  0  0  0  0  0  0  0  0  0  0
   19.2135   13.9276   46.1005 N   0  0  0  0  0  0  0  0  0  0  0  0
   18.2653   14.8448   45.7136 C   0  0  0  0  0  0  0  0  0  0  0  0
   17.8192   16.0017   46.3628 C   0  0  0  0  0  0  0  0  0  0  0  0
   16.8199   16.7513   45.7377 C   0  0  0  0  0  0  0  0  0  0  0  0
   16.2868   16.3554   44.5142 C   0  0  0  0  0  0  0  0  0  0  0  0
   16.7442   15.1954   43.8776 C   0  0  0  0  0  0  0  0  0  0  0  0
   17.7570   14.4236   44.4851 C   0  0  0  0  0  0  0  0  0  0  0  0
   19.7339   13.9752   46.9673 H   0  0  0  0  0  0  0  0  0  0  0  0
   18.2595   12.4211   42.8852 C   0  0  0  0  0  0  0  0  0  0  0  0
   19.1452   10.4165   41.7383 N   0  0  0  0  0  0  0  0  0  0  0  0
   18.7825   10.9971   43.0592 C   0  0  0  0  0  0  0  0  0  0  0  0
   19.4995    9.4570   41.8488 H   0  0  0  0  0  0  0  0  0  0  0  0
   19.8810   10.9627   41.2710 H   0  0  0  0  0  0  0  0  0  0  0  0
   18.3341   10.3721   41.1071 H   0  0  0  0  0  0  0  0  0  0  0  0
 12 13  1  0
 13 11  1  0
 11  1  1  0
  1  2  2  0
  2  3  1  0
  3  4  1  0
  4  5  2  0
  5  6  1  0
  6  7  2  0
  7  8  1  0
  8  9  2  0
  9  1  1  0
  9  4  1  0
 12 14  1  0
 12 15  1  0
 12 16  1  0
  3 10  1  0
M  CHG 1  12   1
M  END
> <minimizedAffinity>
-3.92309

> <CNNscore>
0.8385847807

> <CNNaffinity>
5.7948088646

> <CNN_VS>
4.8594384193

> <CNNaffinity_variance>
1.7093378305

$$$$
Tryptamine_like


 16 17  0  0  0  0  0  0  0  0999 V2000
   18.6773   15.1692   47.3442 C   0  0  0  0  0  0  0  0  0  0  0  0
   19.2159   13.9307   47.0554 C   0  0  0  0  0  0  0  0  0  0  0  0
   18.7591   13.5389   45.8238 N   0  0  0  0  0  0  0  0  0  0  0  0
   17.9182   14.4953   45.3058 C   0  0  0  0  0  0  0  0  0  0  0  0
   17.2221   14.5148   44.0918 C   0  0  0  0  0  0  0  0  0  0  0  0
   16.4390   15.6371   43.8116 C   0  0  0  0  0  0  0  0  0  0  0  0
   16.3601   16.6980   44.7095 C   0  0  0  0  0  0  0  0  0  0  0  0
   17.0627   16.6629   45.9200 C   0  0  0  0  0  0  0  0  0  0  0  0
   17.8562   15.5382   46.2297 C   0  0  0  0  0  0  0  0  0  0  0  0
   19.0019   12.6765   45.3530 H   0  0  0  0  0  0  0  0  0  0  0  0
   18.9019   15.9620   48.5853 C   0  0  0  0  0  0  0  0  0  0  0  0
   17.9472   15.3032   50.7700 N   0  0  0  0  0  0  0  0  0  0  0  0
   19.0503   15.0533   49.8035 C   0  0  0  0  0  0  0  0  0  0  0  0
   18.0410   14.6930   51.5930 H   0  0  0  0  0  0  0  0  0  0  0  0
   17.0257   15.1159   50.3533 H   0  0  0  0  0  0  0  0  0  0  0  0
   17.9509   16.2749   51.1078 H   0  0  0  0  0  0  0  0  0  0  0  0
 12 13  1  0
 13 11  1  0
 11  1  1  0
  1  2  2  0
  2  3  1  0
  3  4  1  0
  4  5  2  0
  5  6  1  0
  6  7  2  0
  7  8  1  0
  8  9  2  0
  9  1  1  0
  9  4  1  0
 12 14  1  0
 12 15  1  0
 12 16  1  0
  3 10  1  0
M  CHG 1  12   1
M  END
> <minimizedAffinity>
-3.81932

> <CNNscore>
0.7746751904

> <CNNaffinity>
5.3092093468

> <CNN_VS>
4.1129126549

> <CNNaffinity_variance>
1.7312592268

$$$$
Tryptamine_like


 16 17  0  0  0  0  0  0  0  0999 V2000
   12.2365   21.9288   45.6566 C   0  0  0  0  0  0  0  0  0  0  0  0
   11.4952   22.7045   46.5262 C   0  0  0  0  0  0  0  0  0  0  0  0
   11.5127   22.1058   47.7592 N   0  0  0  0  0  0  0  0  0  0  0  0
   12.2428   20.9420   47.7089 C   0  0  0  0  0  0  0  0  0  0  0  0
   12.5177   20.0116   48.7176 C   0  0  0  0  0  0  0  0  0  0  0  0
   13.3102   18.9103   48.3851 C   0  0  0  0  0  0  0  0  0  0  0  0
   13.8099   18.7504   47.0956 C   0  0  0  0  0  0  0  0  0  0  0  0
   13.5255   19.6904   46.0978 C   0  0  0  0  0  0  0  0  0  0  0  0
   12.7225   20.8087   46.4061 C   0  0  0  0  0  0  0  0  0  0  0  0
   11.0616   22.4615   48.5926 H   0  0  0  0  0  0  0  0  0  0  0  0
   12.4737   22.2032   44.2117 C   0  0  0  0  0  0  0  0  0  0  0  0
   10.4770   20.9249   43.5064 N   0  0  0  0  0  0  0  0  0  0  0  0
   11.1607   22.2442   43.4332 C   0  0  0  0  0  0  0  0  0  0  0  0
    9.5907   20.9463   42.9845 H   0  0  0  0  0  0  0  0  0  0  0  0
   10.2549   20.6641   44.4763 H   0  0  0  0  0  0  0  0  0  0  0  0
   11.0529   20.1754   43.1005 H   0  0  0  0  0  0  0  0  0  0  0  0
 12 13  1  0
 13 11  1  0
 11  1  1  0
  1  2  2  0
  2  3  1  0
  3  4  1  0
  4  5  2  0
  5  6  1  0
  6  7  2  0
  7  8  1  0
  8  9  2  0
  9  1  1  0
  9  4  1  0
 12 14  1  0
 12 15  1  0
 12 16  1  0
  3 10  1  0
M  CHG 1  12   1
M  END
> <minimizedAffinity>
-4.50262

> <CNNscore>
0.7736334801

> <CNNaffinity>
3.8675582409

> <CNN_VS>
2.9920725822

> <CNNaffinity_variance>
0.1537674218

$$$$
Tryptamine_like


 16 17  0  0  0  0  0  0  0  0999 V2000
   17.5456   15.0719   43.5784 C   0  0  0  0  0  0  0  0  0  0  0  0
   18.4870   15.4004   42.6228 C   0  0  0  0  0  0  0  0  0  0  0  0
   18.6415   16.7625   42.6208 N   0  0  0  0  0  0  0  0  0  0  0  0
   17.8060   17.3340   43.5511 C   0  0  0  0  0  0  0  0  0  0  0  0
   17.6227   18.6808   43.8843 C   0  0  0  0  0  0  0  0  0  0  0  0
   16.7041   18.9797   44.8934 C   0  0  0  0  0  0  0  0  0  0  0  0
   16.0013   17.9698   45.5446 C   0  0  0  0  0  0  0  0  0  0  0  0
   16.1962   16.6270   45.1993 C   0  0  0  0  0  0  0  0  0  0  0  0
   17.1140   16.2988   44.1792 C   0  0  0  0  0  0  0  0  0  0  0  0
   19.2775   17.2818   42.0290 H   0  0  0  0  0  0  0  0  0  0  0  0
   17.0653   13.7013   43.9102 C   0  0  0  0  0  0  0  0  0  0  0  0
   17.7962   11.9938   45.5439 N   0  0  0  0  0  0  0  0  0  0  0  0
   18.2150   12.8084   44.3716 C   0  0  0  0  0  0  0  0  0  0  0  0
   18.5664   11.3890   45.8590 H   0  0  0  0  0  0  0  0  0  0  0  0
   16.9997   11.3831   45.3187 H   0  0  0  0  0  0  0  0  0  0  0  0
   17.5264   12.5856   46.3409 H   0  0  0  0  0  0  0  0  0  0  0  0
 12 13  1  0
 13 11  1  0
 11  1  1  0
  1  2  2  0
  2  3  1  0
  3  4  1  0
  4  5  2  0
  5  6  1  0
  6  7  2  0
  7  8  1  0
  8  9  2  0
  9  1  1  0
  9  4  1  0
 12 14  1  0
 12 15  1  0
 12 16  1  0
  3 10  1  0
M  CHG 1  12   1
M  END
> <minimizedAffinity>
-3.81942

> <CNNscore>
0.7238560915

> <CNNaffinity>
5.9056029320

> <CNN_VS>
4.2748064995

> <CNNaffinity_variance>
6.6757836342

$$$$
Tryptamine_like


 16 17  0  0  0  0  0  0  0  0999 V2000
   18.2833   19.2322   42.7296 C   0  0  0  0  0  0  0  0  0  0  0  0
   18.6376   18.6589   41.5241 C   0  0  0  0  0  0  0  0  0  0  0  0
   18.1459   17.3796   41.4946 N   0  0  0  0  0  0  0  0  0  0  0  0
   17.4860   17.1000   42.6677 C   0  0  0  0  0  0  0  0  0  0  0  0
   16.8412   15.9270   43.0764 C   0  0  0  0  0  0  0  0  0  0  0  0
   16.2323   15.9263   44.3336 C   0  0  0  0  0  0  0  0  0  0  0  0
   16.2647   17.0562   45.1460 C   0  0  0  0  0  0  0  0  0  0  0  0
   16.9141   18.2220   44.7225 C   0  0  0  0  0  0  0  0  0  0  0  0
   17.5422   18.2469   43.4593 C   0  0  0  0  0  0  0  0  0  0  0  0
   18.2443   16.7290   40.7256 H   0  0  0  0  0  0  0  0  0  0  0  0
   18.6196   20.6103   43.1846 C   0  0  0  0  0  0  0  0  0  0  0  0
   17.3279   22.0421   41.6356 N   0  0  0  0  0  0  0  0  0  0  0  0
   18.6923   21.5798   42.0071 C   0  0  0  0  0  0  0  0  0  0  0  0
   17.3701   22.6968   40.8431 H   0  0  0  0  0  0  0  0  0  0  0  0
   16.8665   22.5322   42.4133 H   0  0  0  0  0  0  0  0  0  0  0  0
   16.7250   21.2581   41.3526 H   0  0  0  0  0  0  0  0  0  0  0  0
 12 13  1  0
 13 11  1  0
 11  1  1  0
  1  2  2  0
  2  3  1  0
  3  4  1  0
  4  5  2  0
  5  6  1  0
  6  7  2  0
  7  8  1  0
  8  9  2  0
  9  1  1  0
  9  4  1  0
 12 14  1  0
 12 15  1  0
 12 16  1  0
  3 10  1  0
M  CHG 1  12   1
M  END
> <minimizedAffinity>
-4.05825

> <CNNscore>
0.7175571322

> <CNNaffinity>
5.0732235909

> <CNN_VS>
3.6403276920

> <CNNaffinity_variance>
1.5040391684

$$$$
Tryptamine_like


 16 17  0  0  0  0  0  0  0  0999 V2000
   18.5464   12.0893   42.4857 C   0  0  0  0  0  0  0  0  0  0  0  0
   18.0196   13.2408   43.0372 C   0  0  0  0  0  0  0  0  0  0  0  0
   17.7826   13.0117   44.3678 N   0  0  0  0  0  0  0  0  0  0  0  0
   18.1332   11.7233   44.6950 C   0  0  0  0  0  0  0  0  0  0  0  0
   18.0559   11.0574   45.9236 C   0  0  0  0  0  0  0  0  0  0  0  0
   18.5016    9.7344   45.9730 C   0  0  0  0  0  0  0  0  0  0  0  0
   19.0078    9.1061   44.8386 C   0  0  0  0  0  0  0  0  0  0  0  0
   19.0783    9.7863   43.6169 C   0  0  0  0  0  0  0  0  0  0  0  0
   18.6291   11.1214   43.5387 C   0  0  0  0  0  0  0  0  0  0  0  0
   17.4089   13.6860   45.0236 H   0  0  0  0  0  0  0  0  0  0  0  0
   18.9418   11.8925   41.0630 C   0  0  0  0  0  0  0  0  0  0  0  0
   19.1574   10.1419   39.3289 N   0  0  0  0  0  0  0  0  0  0  0  0
   19.2897   10.4325   40.7820 C   0  0  0  0  0  0  0  0  0  0  0  0
   19.3916    9.1595   39.1328 H   0  0  0  0  0  0  0  0  0  0  0  0
   19.7886   10.7257   38.7644 H   0  0  0  0  0  0  0  0  0  0  0  0
   18.1970   10.2996   38.9958 H   0  0  0  0  0  0  0  0  0  0  0  0
 12 13  1  0
 13 11  1  0
 11  1  1  0
  1  2  2  0
  2  3  1  0
  3  4  1  0
  4  5  2  0
  5  6  1  0
  6  7  2  0
  7  8  1  0
  8  9  2  0
  9  1  1  0
  9  4  1  0
 12 14  1  0
 12 15  1  0
 12 16  1  0
  3 10  1  0
M  CHG 1  12   1
M  END
> <minimizedAffinity>
-4.46625

> <CNNscore>
0.7148911953

> <CNNaffinity>
4.0691866875

> <CNN_VS>
2.9090256691

> <CNNaffinity_variance>
0.2128602862

$$$$
Tryptamine_like


 16 17  0  0  0  0  0  0  0  0999 V2000
   18.2691   11.5595   44.4497 C   0  0  0  0  0  0  0  0  0  0  0  0
   18.8411   10.7192   43.5148 C   0  0  0  0  0  0  0  0  0  0  0  0
   18.9334   11.3962   42.3264 N   0  0  0  0  0  0  0  0  0  0  0  0
   18.4183   12.6635   42.4636 C   0  0  0  0  0  0  0  0  0  0  0  0
   18.2988   13.6899   41.5198 C   0  0  0  0  0  0  0  0  0  0  0  0
   17.7410   14.8985   41.9436 C   0  0  0  0  0  0  0  0  0  0  0  0
   17.3239   15.0724   43.2603 C   0  0  0  0  0  0  0  0  0  0  0  0
   17.4502   14.0353   44.1924 C   0  0  0  0  0  0  0  0  0  0  0  0
   18.0050   12.8026   43.7883 C   0  0  0  0  0  0  0  0  0  0  0  0
   19.3255   11.0289   41.4687 H   0  0  0  0  0  0  0  0  0  0  0  0
   17.9744   11.2278   45.8718 C   0  0  0  0  0  0  0  0  0  0  0  0
   19.0803    9.7247   47.4954 N   0  0  0  0  0  0  0  0  0  0  0  0
   18.3596    9.7860   46.1953 C   0  0  0  0  0  0  0  0  0  0  0  0
   19.3418    8.7553   47.7197 H   0  0  0  0  0  0  0  0  0  0  0  0
   18.4995   10.0722   48.2699 H   0  0  0  0  0  0  0  0  0  0  0  0
   19.9470   10.2785   47.4759 H   0  0  0  0  0  0  0  0  0  0  0  0
 12 13  1  0
 13 11  1  0
 11  1  1  0
  1  2  2  0
  2  3  1  0
  3  4  1  0
  4  5  2  0
  5  6  1  0
  6  7  2  0
  7  8  1  0
  8  9  2  0
  9  1  1  0
  9  4  1  0
 12 14  1  0
 12 15  1  0
 12 16  1  0
  3 10  1  0
M  CHG 1  12   1
M  END
> <minimizedAffinity>
-4.10863

> <CNNscore>
0.7021717429

> <CNNaffinity>
4.8740215302

> <CNN_VS>
3.4224002361

> <CNNaffinity_variance>
0.1839118004

$$$$
Tryptamine_like


 16 17  0  0  0  0  0  0  0  0999 V2000
   18.2896   12.3704   46.4078 C   0  0  0  0  0  0  0  0  0  0  0  0
   18.3657   13.3774   45.4658 C   0  0  0  0  0  0  0  0  0  0  0  0
   18.6497   12.8100   44.2507 N   0  0  0  0  0  0  0  0  0  0  0  0
   18.7744   11.4473   44.3833 C   0  0  0  0  0  0  0  0  0  0  0  0
   19.0656   10.4754   43.4193 C   0  0  0  0  0  0  0  0  0  0  0  0
   19.1177    9.1434   43.8369 C   0  0  0  0  0  0  0  0  0  0  0  0
   18.8834    8.7994   45.1653 C   0  0  0  0  0  0  0  0  0  0  0  0
   18.5935    9.7839   46.1176 C   0  0  0  0  0  0  0  0  0  0  0  0
   18.5408   11.1374   45.7229 C   0  0  0  0  0  0  0  0  0  0  0  0
   18.7505   13.3103   43.3766 H   0  0  0  0  0  0  0  0  0  0  0  0
   18.0099   12.5401   47.8612 C   0  0  0  0  0  0  0  0  0  0  0  0
   18.7929   11.7728   50.0785 N   0  0  0  0  0  0  0  0  0  0  0  0
   19.2222   12.1565   48.7067 C   0  0  0  0  0  0  0  0  0  0  0  0
   19.6054   11.5121   50.6532 H   0  0  0  0  0  0  0  0  0  0  0  0
   18.1548   10.9661   50.0665 H   0  0  0  0  0  0  0  0  0  0  0  0
   18.3153   12.5477   50.5579 H   0  0  0  0  0  0  0  0  0  0  0  0
 12 13  1  0
 13 11  1  0
 11  1  1  0
  1  2  2  0
  2  3  1  0
  3  4  1  0
  4  5  2  0
  5  6  1  0
  6  7  2  0
  7  8  1  0
  8  9  2  0
  9  1  1  0
  9  4  1  0
 12 14  1  0
 12 15  1  0
 12 16  1  0
  3 10  1  0
M  CHG 1  12   1
M  END
> <minimizedAffinity>
-3.82115

> <CNNscore>
0.7000539303

> <CNNaffinity>
5.5796642303

> <CNN_VS>
3.9060659409

> <CNNaffinity_variance>
3.0507051945

$$$$
Tryptamine_like


 16 17  0  0  0  0  0  0  0  0999 V2000
   22.4660    4.0284   54.3692 C   0  0  0  0  0  0  0  0  0  0  0  0
   23.1635    4.5013   55.4633 C   0  0  0  0  0  0  0  0  0  0  0  0
   22.6753    3.8832   56.5853 N   0  0  0  0  0  0  0  0  0  0  0  0
   21.6591    3.0219   56.2457 C   0  0  0  0  0  0  0  0  0  0  0  0
   20.8736    2.1968   57.0587 C   0  0  0  0  0  0  0  0  0  0  0  0
   19.9076    1.4030   56.4357 C   0  0  0  0  0  0  0  0  0  0  0  0
   19.7388    1.4319   55.0542 C   0  0  0  0  0  0  0  0  0  0  0  0
   20.5328    2.2631   54.2548 C   0  0  0  0  0  0  0  0  0  0  0  0
   21.5117    3.0793   54.8600 C   0  0  0  0  0  0  0  0  0  0  0  0
   23.0093    4.0284   57.5297 H   0  0  0  0  0  0  0  0  0  0  0  0
   22.6646    4.4385   52.9508 C   0  0  0  0  0  0  0  0  0  0  0  0
   22.3832    6.3506   51.4071 N   0  0  0  0  0  0  0  0  0  0  0  0
   22.6802    5.9591   52.8113 C   0  0  0  0  0  0  0  0  0  0  0  0
   22.3912    7.3744   51.3066 H   0  0  0  0  0  0  0  0  0  0  0  0
   21.4561    6.0208   51.1074 H   0  0  0  0  0  0  0  0  0  0  0  0
   23.0809    5.9736   50.7518 H   0  0  0  0  0  0  0  0  0  0  0  0
 12 13  1  0
 13 11  1  0
 11  1  1  0
  1  2  2  0
  2  3  1  0
  3  4  1  0
  4  5  2  0
  5  6  1  0
  6  7  2  0
  7  8  1  0
  8  9  2  0
  9  1  1  0
  9  4  1  0
 12 14  1  0
 12 15  1  0
 12 16  1  0
  3 10  1  0
M  CHG 1  12   1
M  END
> <minimizedAffinity>
-3.83634

> <CNNscore>
0.6917070746

> <CNNaffinity>
4.6557555199

> <CNN_VS>
3.2204189301

> <CNNaffinity_variance>
0.1947145909

$$$$
Tryptamine_like


 16 17  0  0  0  0  0  0  0  0999 V2000
   18.4509   19.1366   43.4486 C   0  0  0  0  0  0  0  0  0  0  0  0
   18.3821   19.5748   44.7565 C   0  0  0  0  0  0  0  0  0  0  0  0
   17.6757   18.6519   45.4834 N   0  0  0  0  0  0  0  0  0  0  0  0
   17.2683   17.6213   44.6697 C   0  0  0  0  0  0  0  0  0  0  0  0
   16.5222   16.4777   44.9765 C   0  0  0  0  0  0  0  0  0  0  0  0
   16.2620   15.5765   43.9414 C   0  0  0  0  0  0  0  0  0  0  0  0
   16.7337   15.8100   42.6527 C   0  0  0  0  0  0  0  0  0  0  0  0
   17.4787   16.9592   42.3621 C   0  0  0  0  0  0  0  0  0  0  0  0
   17.7504   17.8883   43.3885 C   0  0  0  0  0  0  0  0  0  0  0  0
   17.4804   18.7081   46.4749 H   0  0  0  0  0  0  0  0  0  0  0  0
   19.1186   19.8377   42.3164 C   0  0  0  0  0  0  0  0  0  0  0  0
   18.6409   22.2647   42.3112 N   0  0  0  0  0  0  0  0  0  0  0  0
   18.2335   20.9472   41.7530 C   0  0  0  0  0  0  0  0  0  0  0  0
   18.0487   23.0169   41.9345 H   0  0  0  0  0  0  0  0  0  0  0  0
   19.6151   22.4942   42.0743 H   0  0  0  0  0  0  0  0  0  0  0  0
   18.5498   22.2879   43.3357 H   0  0  0  0  0  0  0  0  0  0  0  0
 12 13  1  0
 13 11  1  0
 11  1  1  0
  1  2  2  0
  2  3  1  0
  3  4  1  0
  4  5  2  0
  5  6  1  0
  6  7  2  0
  7  8  1  0
  8  9  2  0
  9  1  1  0
  9  4  1  0
 12 14  1  0
 12 15  1  0
 12 16  1  0
  3 10  1  0
M  CHG 1  12   1
M  END
> <minimizedAffinity>
-3.83803

> <CNNscore>
0.6781958938

> <CNNaffinity>
5.0332818031

> <CNN_VS>
3.4135510921

> <CNNaffinity_variance>
0.8568234444

$$$$
Tryptamine_like


 16 17  0  0  0  0  0  0  0  0999 V2000
   18.8619   11.4119   42.1573 C   0  0  0  0  0  0  0  0  0  0  0  0
   19.3660   10.2896   41.5299 C   0  0  0  0  0  0  0  0  0  0  0  0
   19.4619    9.2844   42.4569 N   0  0  0  0  0  0  0  0  0  0  0  0
   19.0411    9.7338   43.6861 C   0  0  0  0  0  0  0  0  0  0  0  0
   18.9751    9.0619   44.9121 C   0  0  0  0  0  0  0  0  0  0  0  0
   18.4864    9.7690   46.0133 C   0  0  0  0  0  0  0  0  0  0  0  0
   18.0770   11.0938   45.8898 C   0  0  0  0  0  0  0  0  0  0  0  0
   18.1496   11.7517   44.6561 C   0  0  0  0  0  0  0  0  0  0  0  0
   18.6450   11.0618   43.5295 C   0  0  0  0  0  0  0  0  0  0  0  0
   19.7887    8.3441   42.2738 H   0  0  0  0  0  0  0  0  0  0  0  0
   18.6046   12.7362   41.5254 C   0  0  0  0  0  0  0  0  0  0  0  0
   17.7641   15.0344   41.8862 N   0  0  0  0  0  0  0  0  0  0  0  0
   18.1412   13.7616   42.5578 C   0  0  0  0  0  0  0  0  0  0  0  0
   17.4498   15.7294   42.5766 H   0  0  0  0  0  0  0  0  0  0  0  0
   16.9953   14.8988   41.2165 H   0  0  0  0  0  0  0  0  0  0  0  0
   18.5584   15.4458   41.3781 H   0  0  0  0  0  0  0  0  0  0  0  0
 12 13  1  0
 13 11  1  0
 11  1  1  0
  1  2  2  0
  2  3  1  0
  3  4  1  0
  4  5  2  0
  5  6  1  0
  6  7  2  0
  7  8  1  0
  8  9  2  0
  9  1  1  0
  9  4  1  0
 12 14  1  0
 12 15  1  0
 12 16  1  0
  3 10  1  0
M  CHG 1  12   1
M  END
> <minimizedAffinity>
-4.40373

> <CNNscore>
0.6757515669

> <CNNaffinity>
4.1072249413

> <CNN_VS>
2.7754635811

> <CNNaffinity_variance>
0.0598306954

$$$$
Tryptamine_like


 16 17  0  0  0  0  0  0  0  0999 V2000
   18.3776   19.3140   44.6670 C   0  0  0  0  0  0  0  0  0  0  0  0
   18.8722   19.7864   43.4672 C   0  0  0  0  0  0  0  0  0  0  0  0
   18.5088   18.9110   42.4769 N   0  0  0  0  0  0  0  0  0  0  0  0
   17.7947   17.8643   43.0104 C   0  0  0  0  0  0  0  0  0  0  0  0
   17.2370   16.7458   42.3806 C   0  0  0  0  0  0  0  0  0  0  0  0
   16.5407   15.8335   43.1769 C   0  0  0  0  0  0  0  0  0  0  0  0
   16.4054   16.0361   44.5475 C   0  0  0  0  0  0  0  0  0  0  0  0
   16.9695   17.1603   45.1624 C   0  0  0  0  0  0  0  0  0  0  0  0
   17.6829   18.0940   44.3815 C   0  0  0  0  0  0  0  0  0  0  0  0
   18.7248   19.0123   41.4933 H   0  0  0  0  0  0  0  0  0  0  0  0
   18.5464   19.9502   46.0034 C   0  0  0  0  0  0  0  0  0  0  0  0
   20.9881   20.0846   46.3752 N   0  0  0  0  0  0  0  0  0  0  0  0
   19.7423   19.3626   46.7492 C   0  0  0  0  0  0  0  0  0  0  0  0
   21.7978   19.6940   46.8753 H   0  0  0  0  0  0  0  0  0  0  0  0
   20.9351   21.0842   46.6120 H   0  0  0  0  0  0  0  0  0  0  0  0
   21.1844   20.0074   45.3683 H   0  0  0  0  0  0  0  0  0  0  0  0
 12 13  1  0
 13 11  1  0
 11  1  1  0
  1  2  2  0
  2  3  1  0
  3  4  1  0
  4  5  2  0
  5  6  1  0
  6  7  2  0
  7  8  1  0
  8  9  2  0
  9  1  1  0
  9  4  1  0
 12 14  1  0
 12 15  1  0
 12 16  1  0
  3 10  1  0
M  CHG 1  12   1
M  END
> <minimizedAffinity>
-4.16928

> <CNNscore>
0.6753994823

> <CNNaffinity>
4.8404331207

> <CNN_VS>
3.2692260742

> <CNNaffinity_variance>
0.3911652863

$$$$
Tryptamine_like


 16 17  0  0  0  0  0  0  0  0999 V2000
   19.1775   10.3577   41.9469 C   0  0  0  0  0  0  0  0  0  0  0  0
   18.8820   11.6614   41.5998 C   0  0  0  0  0  0  0  0  0  0  0  0
   18.4756   12.3258   42.7279 N   0  0  0  0  0  0  0  0  0  0  0  0
   18.4872   11.4746   43.8074 C   0  0  0  0  0  0  0  0  0  0  0  0
   18.1441   11.7151   45.1428 C   0  0  0  0  0  0  0  0  0  0  0  0
   18.2656   10.6550   46.0443 C   0  0  0  0  0  0  0  0  0  0  0  0
   18.7164    9.4063   45.6253 C   0  0  0  0  0  0  0  0  0  0  0  0
   19.0555    9.1820   44.2856 C   0  0  0  0  0  0  0  0  0  0  0  0
   18.9361   10.2346   43.3537 C   0  0  0  0  0  0  0  0  0  0  0  0
   18.2084   13.3010   42.7724 H   0  0  0  0  0  0  0  0  0  0  0  0
   19.6475    9.2840   41.0273 C   0  0  0  0  0  0  0  0  0  0  0  0
   18.6188    8.4074   38.9557 N   0  0  0  0  0  0  0  0  0  0  0  0
   19.2700    9.5905   39.5798 C   0  0  0  0  0  0  0  0  0  0  0  0
   18.3609    8.6079   37.9801 H   0  0  0  0  0  0  0  0  0  0  0  0
   17.7578    8.1406   39.4513 H   0  0  0  0  0  0  0  0  0  0  0  0
   19.2444    7.5909   38.9449 H   0  0  0  0  0  0  0  0  0  0  0  0
 12 13  1  0
 13 11  1  0
 11  1  1  0
  1  2  2  0
  2  3  1  0
  3  4  1  0
  4  5  2  0
  5  6  1  0
  6  7  2  0
  7  8  1  0
  8  9  2  0
  9  1  1  0
  9  4  1  0
 12 14  1  0
 12 15  1  0
 12 16  1  0
  3 10  1  0
M  CHG 1  12   1
M  END
> <minimizedAffinity>
-4.31771

> <CNNscore>
0.6660265923

> <CNNaffinity>
4.3716297150

> <CNN_VS>
2.9116215706

> <CNNaffinity_variance>
0.2366338968

$$$$
Tryptamine_like


 16 17  0  0  0  0  0  0  0  0999 V2000
   18.5380   12.4324   42.2723 C   0  0  0  0  0  0  0  0  0  0  0  0
   18.4798   11.8042   43.5009 C   0  0  0  0  0  0  0  0  0  0  0  0
   17.8973   12.6631   44.3966 N   0  0  0  0  0  0  0  0  0  0  0  0
   17.5847   13.8503   43.7778 C   0  0  0  0  0  0  0  0  0  0  0  0
   16.9917   15.0051   44.3007 C   0  0  0  0  0  0  0  0  0  0  0  0
   16.7749   16.0744   43.4283 C   0  0  0  0  0  0  0  0  0  0  0  0
   17.1339   15.9880   42.0860 C   0  0  0  0  0  0  0  0  0  0  0  0
   17.7264   14.8254   41.5785 C   0  0  0  0  0  0  0  0  0  0  0  0
   17.9617   13.7332   42.4401 C   0  0  0  0  0  0  0  0  0  0  0  0
   17.7150   12.4619   45.3716 H   0  0  0  0  0  0  0  0  0  0  0  0
   19.1038   11.8649   41.0164 C   0  0  0  0  0  0  0  0  0  0  0  0
   19.1927    9.6980   39.8269 N   0  0  0  0  0  0  0  0  0  0  0  0
   19.3484   10.3634   41.1484 C   0  0  0  0  0  0  0  0  0  0  0  0
   19.3574    8.6858   39.9089 H   0  0  0  0  0  0  0  0  0  0  0  0
   19.8618   10.0621   39.1357 H   0  0  0  0  0  0  0  0  0  0  0  0
   18.2449    9.8238   39.4474 H   0  0  0  0  0  0  0  0  0  0  0  0
 12 13  1  0
 13 11  1  0
 11  1  1  0
  1  2  2  0
  2  3  1  0
  3  4  1  0
  4  5  2  0
  5  6  1  0
  6  7  2  0
  7  8  1  0
  8  9  2  0
  9  1  1  0
  9  4  1  0
 12 14  1  0
 12 15  1  0
 12 16  1  0
  3 10  1  0
M  CHG 1  12   1
M  END
> <minimizedAffinity>
-3.97703

> <CNNscore>
0.6605437994

> <CNNaffinity>
4.3515758514

> <CNN_VS>
2.8744063377

> <CNNaffinity_variance>
0.0431158654

$$$$
Tryptamine_like


 16 17  0  0  0  0  0  0  0  0999 V2000
   19.0468   10.9985   41.3097 C   0  0  0  0  0  0  0  0  0  0  0  0
   18.8228   12.1543   40.5877 C   0  0  0  0  0  0  0  0  0  0  0  0
   18.3929   13.1264   41.4533 N   0  0  0  0  0  0  0  0  0  0  0  0
   18.3184   12.6225   42.7302 C   0  0  0  0  0  0  0  0  0  0  0  0
   17.9241   13.2468   43.9191 C   0  0  0  0  0  0  0  0  0  0  0  0
   17.9589   12.4887   45.0919 C   0  0  0  0  0  0  0  0  0  0  0  0
   18.3756   11.1605   45.0743 C   0  0  0  0  0  0  0  0  0  0  0  0
   18.7668   10.5505   43.8764 C   0  0  0  0  0  0  0  0  0  0  0  0
   18.7352   11.2926   42.6768 C   0  0  0  0  0  0  0  0  0  0  0  0
   18.1651   14.0799   41.2014 H   0  0  0  0  0  0  0  0  0  0  0  0
   19.5133    9.6930   40.7643 C   0  0  0  0  0  0  0  0  0  0  0  0
   18.4777    8.3893   38.9351 N   0  0  0  0  0  0  0  0  0  0  0  0
   19.2727    9.6043   39.2589 C   0  0  0  0  0  0  0  0  0  0  0  0
   18.3112    8.3242   37.9219 H   0  0  0  0  0  0  0  0  0  0  0  0
   17.5584    8.4012   39.3963 H   0  0  0  0  0  0  0  0  0  0  0  0
   18.9646    7.5292   39.2207 H   0  0  0  0  0  0  0  0  0  0  0  0
 12 13  1  0
 13 11  1  0
 11  1  1  0
  1  2  2  0
  2  3  1  0
  3  4  1  0
  4  5  2  0
  5  6  1  0
  6  7  2  0
  7  8  1  0
  8  9  2  0
  9  1  1  0
  9  4  1  0
 12 14  1  0
 12 15  1  0
 12 16  1  0
  3 10  1  0
M  CHG 1  12   1
M  END
> <minimizedAffinity>
-4.28928

> <CNNscore>
0.6520748138

> <CNNaffinity>
4.0506916046

> <CNN_VS>
2.6413540840

> <CNNaffinity_variance>
0.0144734755

$$$$
Tryptamine_like


 16 17  0  0  0  0  0  0  0  0999 V2000
   18.7102   10.2992   44.6376 C   0  0  0  0  0  0  0  0  0  0  0  0
   19.2095    9.1514   44.0540 C   0  0  0  0  0  0  0  0  0  0  0  0
   19.4100    9.3982   42.7206 N   0  0  0  0  0  0  0  0  0  0  0  0
   19.0371   10.6863   42.4174 C   0  0  0  0  0  0  0  0  0  0  0  0
   19.0598   11.3615   41.1918 C   0  0  0  0  0  0  0  0  0  0  0  0
   18.6301   12.6906   41.1758 C   0  0  0  0  0  0  0  0  0  0  0  0
   18.1992   13.3183   42.3413 C   0  0  0  0  0  0  0  0  0  0  0  0
   18.1825   12.6286   43.5596 C   0  0  0  0  0  0  0  0  0  0  0  0
   18.6059   11.2835   43.6017 C   0  0  0  0  0  0  0  0  0  0  0  0
   19.7816    8.7382   42.0493 H   0  0  0  0  0  0  0  0  0  0  0  0
   18.3412   10.4727   46.0704 C   0  0  0  0  0  0  0  0  0  0  0  0
   19.2303    9.8968   48.3056 N   0  0  0  0  0  0  0  0  0  0  0  0
   18.9595    9.3784   46.9377 C   0  0  0  0  0  0  0  0  0  0  0  0
   19.6462    9.1636   48.8955 H   0  0  0  0  0  0  0  0  0  0  0  0
   18.3691   10.2124   48.7711 H   0  0  0  0  0  0  0  0  0  0  0  0
   19.8894   10.6864   48.2892 H   0  0  0  0  0  0  0  0  0  0  0  0
 12 13  1  0
 13 11  1  0
 11  1  1  0
  1  2  2  0
  2  3  1  0
  3  4  1  0
  4  5  2  0
  5  6  1  0
  6  7  2  0
  7  8  1  0
  8  9  2  0
  9  1  1  0
  9  4  1  0
 12 14  1  0
 12 15  1  0
 12 16  1  0
  3 10  1  0
M  CHG 1  12   1
M  END
> <minimizedAffinity>
-4.25732

> <CNNscore>
0.6253226995

> <CNNaffinity>
4.7132067680

> <CNN_VS>
2.9472751617

> <CNNaffinity_variance>
0.3067611158

$$$$
Tryptamine_like


 16 17  0  0  0  0  0  0  0  0999 V2000
   16.6234   16.3551   44.2038 C   0  0  0  0  0  0  0  0  0  0  0  0
   16.2967   17.0808   45.3325 C   0  0  0  0  0  0  0  0  0  0  0  0
   16.7357   18.3678   45.1592 N   0  0  0  0  0  0  0  0  0  0  0  0
   17.3574   18.4945   43.9396 C   0  0  0  0  0  0  0  0  0  0  0  0
   17.9591   19.6130   43.3517 C   0  0  0  0  0  0  0  0  0  0  0  0
   18.5100   19.4580   42.0773 C   0  0  0  0  0  0  0  0  0  0  0  0
   18.4562   18.2332   41.4178 C   0  0  0  0  0  0  0  0  0  0  0  0
   17.8507   17.1237   42.0199 C   0  0  0  0  0  0  0  0  0  0  0  0
   17.2920   17.2523   43.3090 C   0  0  0  0  0  0  0  0  0  0  0  0
   16.6205   19.1233   45.8228 H   0  0  0  0  0  0  0  0  0  0  0  0
   16.3416   14.9110   43.9703 C   0  0  0  0  0  0  0  0  0  0  0  0
   17.9121   13.3245   42.9050 N   0  0  0  0  0  0  0  0  0  0  0  0
   17.5987   14.0645   44.1570 C   0  0  0  0  0  0  0  0  0  0  0  0
   18.7590   12.7527   43.0239 H   0  0  0  0  0  0  0  0  0  0  0  0
   18.0821   13.9634   42.1170 H   0  0  0  0  0  0  0  0  0  0  0  0
   17.1488   12.6884   42.6383 H   0  0  0  0  0  0  0  0  0  0  0  0
 12 13  1  0
 13 11  1  0
 11  1  1  0
  1  2  2  0
  2  3  1  0
  3  4  1  0
  4  5  2  0
  5  6  1  0
  6  7  2  0
  7  8  1  0
  8  9  2  0
  9  1  1  0
  9  4  1  0
 12 14  1  0
 12 15  1  0
 12 16  1  0
  3 10  1  0
M  CHG 1  12   1
M  END
> <minimizedAffinity>
-3.81381

> <CNNscore>
0.6243106127

> <CNNaffinity>
5.5736122131

> <CNN_VS>
3.4796652794

> <CNNaffinity_variance>
5.6649756432

$$$$
Tryptamine_like


 16 17  0  0  0  0  0  0  0  0999 V2000
   22.4773   -0.3518   56.2014 C   0  0  0  0  0  0  0  0  0  0  0  0
   22.7133   -0.7644   54.9047 C   0  0  0  0  0  0  0  0  0  0  0  0
   21.9865    0.0336   54.0597 N   0  0  0  0  0  0  0  0  0  0  0  0
   21.2665    0.9549   54.7828 C   0  0  0  0  0  0  0  0  0  0  0  0
   20.3895    1.9530   54.3430 C   0  0  0  0  0  0  0  0  0  0  0  0
   19.7976    2.7682   55.3107 C   0  0  0  0  0  0  0  0  0  0  0  0
   20.0765    2.5929   56.6632 C   0  0  0  0  0  0  0  0  0  0  0  0
   20.9563    1.5895   57.0869 C   0  0  0  0  0  0  0  0  0  0  0  0
   21.5628    0.7487   56.1300 C   0  0  0  0  0  0  0  0  0  0  0  0
   21.9769   -0.0334   53.0498 H   0  0  0  0  0  0  0  0  0  0  0  0
   23.0573   -0.9482   57.4371 C   0  0  0  0  0  0  0  0  0  0  0  0
   24.7787    0.7071   56.7927 N   0  0  0  0  0  0  0  0  0  0  0  0
   24.3123   -0.1980   57.8775 C   0  0  0  0  0  0  0  0  0  0  0  0
   25.6238    1.2165   57.0837 H   0  0  0  0  0  0  0  0  0  0  0  0
   24.0669    1.4086   56.5493 H   0  0  0  0  0  0  0  0  0  0  0  0
   25.0152    0.1856   55.9381 H   0  0  0  0  0  0  0  0  0  0  0  0
 12 13  1  0
 13 11  1  0
 11  1  1  0
  1  2  2  0
  2  3  1  0
  3  4  1  0
  4  5  2  0
  5  6  1  0
  6  7  2  0
  7  8  1  0
  8  9  2  0
  9  1  1  0
  9  4  1  0
 12 14  1  0
 12 15  1  0
 12 16  1  0
  3 10  1  0
M  CHG 1  12   1
M  END
> <minimizedAffinity>
-4.26398

> <CNNscore>
0.6091723442

> <CNNaffinity>
3.8018062115

> <CNN_VS>
2.3159551620

> <CNNaffinity_variance>
0.1770978570

$$$$
Tryptamine_like


 16 17  0  0  0  0  0  0  0  0999 V2000
   19.0542   11.0182   41.4824 C   0  0  0  0  0  0  0  0  0  0  0  0
   19.4948    9.7093   41.4905 C   0  0  0  0  0  0  0  0  0  0  0  0
   19.4161    9.2362   42.7747 N   0  0  0  0  0  0  0  0  0  0  0  0
   18.9432   10.2188   43.6118 C   0  0  0  0  0  0  0  0  0  0  0  0
   18.7123   10.1866   44.9918 C   0  0  0  0  0  0  0  0  0  0  0  0
   18.2078   11.3429   45.5918 C   0  0  0  0  0  0  0  0  0  0  0  0
   17.9418   12.4831   44.8388 C   0  0  0  0  0  0  0  0  0  0  0  0
   18.1784   12.4991   43.4589 C   0  0  0  0  0  0  0  0  0  0  0  0
   18.6934   11.3461   42.8296 C   0  0  0  0  0  0  0  0  0  0  0  0
   19.6627    8.3012   43.0736 H   0  0  0  0  0  0  0  0  0  0  0  0
   18.9803   11.9177   40.2972 C   0  0  0  0  0  0  0  0  0  0  0  0
   18.4372   11.6167   37.9029 N   0  0  0  0  0  0  0  0  0  0  0  0
   19.3225   11.1684   39.0114 C   0  0  0  0  0  0  0  0  0  0  0  0
   18.6635   11.1161   37.0331 H   0  0  0  0  0  0  0  0  0  0  0  0
   18.5426   12.6222   37.7138 H   0  0  0  0  0  0  0  0  0  0  0  0
   17.4462   11.4353   38.1110 H   0  0  0  0  0  0  0  0  0  0  0  0
 12 13  1  0
 13 11  1  0
 11  1  1  0
  1  2  2  0
  2  3  1  0
  3  4  1  0
  4  5  2  0
  5  6  1  0
  6  7  2  0
  7  8  1  0
  8  9  2  0
  9  1  1  0
  9  4  1  0
 12 14  1  0
 12 15  1  0
 12 16  1  0
  3 10  1  0
M  CHG 1  12   1
M  END
> <minimizedAffinity>
-4.29292

> <CNNscore>
0.6045112014

> <CNNaffinity>
4.3095421791

> <CNN_VS>
2.6051664352

> <CNNaffinity_variance>
0.6923089623

$$$$
Tryptamine_like


 16 17  0  0  0  0  0  0  0  0999 V2000
   22.5431    2.6978   54.2984 C   0  0  0  0  0  0  0  0  0  0  0  0
   23.5252    1.7404   54.1360 C   0  0  0  0  0  0  0  0  0  0  0  0
   23.3410    0.7690   55.0855 N   0  0  0  0  0  0  0  0  0  0  0  0
   22.2612    1.0811   55.8771 C   0  0  0  0  0  0  0  0  0  0  0  0
   21.7170    0.3890   56.9651 C   0  0  0  0  0  0  0  0  0  0  0  0
   20.5919    0.9376   57.5852 C   0  0  0  0  0  0  0  0  0  0  0  0
   20.0328    2.1288   57.1309 C   0  0  0  0  0  0  0  0  0  0  0  0
   20.5894    2.8091   56.0411 C   0  0  0  0  0  0  0  0  0  0  0  0
   21.7295    2.2793   55.4008 C   0  0  0  0  0  0  0  0  0  0  0  0
   23.9077   -0.0625   55.1944 H   0  0  0  0  0  0  0  0  0  0  0  0
   22.3729    3.9348   53.4858 C   0  0  0  0  0  0  0  0  0  0  0  0
   22.1428    6.3854   53.7307 N   0  0  0  0  0  0  0  0  0  0  0  0
   22.8214    5.1720   54.2604 C   0  0  0  0  0  0  0  0  0  0  0  0
   22.4401    7.2227   54.2493 H   0  0  0  0  0  0  0  0  0  0  0  0
   21.1201    6.3186   53.8173 H   0  0  0  0  0  0  0  0  0  0  0  0
   22.3673    6.5440   52.7393 H   0  0  0  0  0  0  0  0  0  0  0  0
 12 13  1  0
 13 11  1  0
 11  1  1  0
  1  2  2  0
  2  3  1  0
  3  4  1  0
  4  5  2  0
  5  6  1  0
  6  7  2  0
  7  8  1  0
  8  9  2  0
  9  1  1  0
  9  4  1  0
 12 14  1  0
 12 15  1  0
 12 16  1  0
  3 10  1  0
M  CHG 1  12   1
M  END
> <minimizedAffinity>
-3.86493

> <CNNscore>
0.5986066461

> <CNNaffinity>
4.5641207695

> <CNN_VS>
2.7321131229

> <CNNaffinity_variance>
0.5343380570

$$$$
Tryptamine_like


 15 16  0  0  0  0  0  0  0  0999 V2000
   18.5252   13.5594   43.6004 C   0  0  0  0  0  0  0  0  0  0  0  0
   19.5663   13.2475   44.4552 C   0  0  0  0  0  0  0  0  0  0  0  0
   19.5071   14.0895   45.5322 N   0  0  0  0  0  0  0  0  0  0  0  0
   18.4505   14.9586   45.4010 C   0  0  0  0  0  0  0  0  0  0  0  0
   18.0168   15.9855   46.2487 C   0  0  0  0  0  0  0  0  0  0  0  0
   16.8915   16.7168   45.8582 C   0  0  0  0  0  0  0  0  0  0  0  0
   16.2276   16.4291   44.6686 C   0  0  0  0  0  0  0  0  0  0  0  0
   16.6762   15.3993   43.8333 C   0  0  0  0  0  0  0  0  0  0  0  0
   17.8107   14.6468   44.2007 C   0  0  0  0  0  0  0  0  0  0  0  0
   20.1469   14.0823   46.3138 H   0  0  0  0  0  0  0  0  0  0  0  0
   18.2296   12.8926   42.2913 C   0  0  0  0  0  0  0  0  0  0  0  0
   18.8819   11.0133   40.7657 N   0  0  0  0  0  0  0  0  0  0  0  0
   18.8512   11.4955   42.1476 C   0  0  0  0  0  0  0  0  0  0  0  0
   19.3285   10.0985   40.7360 H   0  0  0  0  0  0  0  0  0  0  0  0
   19.4498   11.6361   40.1950 H   0  0  0  0  0  0  0  0  0  0  0  0
 12 13  1  0
 13 11  1  0
 11  1  1  0
  1  2  2  0
  2  3  1  0
  3  4  1  0
  4  5  2  0
  5  6  1  0
  6  7  2  0
  7  8  1  0
  8  9  2  0
  9  1  1  0
  9  4  1  0
 12 14  1  0
 12 15  1  0
  3 10  1  0
M  END
> <minimizedAffinity>
-3.93464

> <CNNscore>
0.7934840918

> <CNNaffinity>
5.4617447853

> <CNN_VS>
4.3338074684

> <CNNaffinity_variance>
1.4756377935

$$$$
Tryptamine_like


 15 16  0  0  0  0  0  0  0  0999 V2000
   17.2381   21.3347   37.6781 C   0  0  0  0  0  0  0  0  0  0  0  0
   18.4122   20.7646   37.2218 C   0  0  0  0  0  0  0  0  0  0  0  0
   19.2266   20.5351   38.2972 N   0  0  0  0  0  0  0  0  0  0  0  0
   18.6156   20.9511   39.4559 C   0  0  0  0  0  0  0  0  0  0  0  0
   19.0738   20.9186   40.7789 C   0  0  0  0  0  0  0  0  0  0  0  0
   18.2234   21.4131   41.7719 C   0  0  0  0  0  0  0  0  0  0  0  0
   16.9655   21.9171   41.4519 C   0  0  0  0  0  0  0  0  0  0  0  0
   16.5247   21.9423   40.1236 C   0  0  0  0  0  0  0  0  0  0  0  0
   17.3627   21.4525   39.1007 C   0  0  0  0  0  0  0  0  0  0  0  0
   20.1477   20.1229   38.2536 H   0  0  0  0  0  0  0  0  0  0  0  0
   16.0781   21.7616   36.8307 C   0  0  0  0  0  0  0  0  0  0  0  0
   14.9291   19.6767   36.0451 N   0  0  0  0  0  0  0  0  0  0  0  0
   14.8557   20.8376   36.9339 C   0  0  0  0  0  0  0  0  0  0  0  0
   14.1056   19.0932   36.1813 H   0  0  0  0  0  0  0  0  0  0  0  0
   15.7367   19.1064   36.2877 H   0  0  0  0  0  0  0  0  0  0  0  0
 12 13  1  0
 13 11  1  0
 11  1  1  0
  1  2  2  0
  2  3  1  0
  3  4  1  0
  4  5  2  0
  5  6  1  0
  6  7  2  0
  7  8  1  0
  8  9  2  0
  9  1  1  0
  9  4  1  0
 12 14  1  0
 12 15  1  0
  3 10  1  0
M  END
> <minimizedAffinity>
-3.87664

> <CNNscore>
0.7611386776

> <CNNaffinity>
5.1073737144

> <CNN_VS>
3.8874197006

> <CNNaffinity_variance>
0.5483949780

$$$$
Tryptamine_like


 15 16  0  0  0  0  0  0  0  0999 V2000
   18.5759   10.2064   45.7456 C   0  0  0  0  0  0  0  0  0  0  0  0
   19.0539    9.7966   44.5146 C   0  0  0  0  0  0  0  0  0  0  0  0
   19.8652    8.7115   44.7063 N   0  0  0  0  0  0  0  0  0  0  0  0
   19.9393    8.4014   46.0432 C   0  0  0  0  0  0  0  0  0  0  0  0
   20.6495    7.3857   46.6954 C   0  0  0  0  0  0  0  0  0  0  0  0
   20.5331    7.3032   48.0858 C   0  0  0  0  0  0  0  0  0  0  0  0
   19.7365    8.2003   48.7925 C   0  0  0  0  0  0  0  0  0  0  0  0
   19.0346    9.2098   48.1236 C   0  0  0  0  0  0  0  0  0  0  0  0
   19.1355    9.3187   46.7213 C   0  0  0  0  0  0  0  0  0  0  0  0
   20.3471    8.2075   43.9757 H   0  0  0  0  0  0  0  0  0  0  0  0
   17.6664   11.3711   45.9948 C   0  0  0  0  0  0  0  0  0  0  0  0
   17.4813   13.1469   44.2350 N   0  0  0  0  0  0  0  0  0  0  0  0
   18.1897   12.7028   45.4367 C   0  0  0  0  0  0  0  0  0  0  0  0
   17.8562   14.0444   43.9330 H   0  0  0  0  0  0  0  0  0  0  0  0
   16.4975   13.2965   44.4494 H   0  0  0  0  0  0  0  0  0  0  0  0
 12 13  1  0
 13 11  1  0
 11  1  1  0
  1  2  2  0
  2  3  1  0
  3  4  1  0
  4  5  2  0
  5  6  1  0
  6  7  2  0
  7  8  1  0
  8  9  2  0
  9  1  1  0
  9  4  1  0
 12 14  1  0
 12 15  1  0
  3 10  1  0
M  END
> <minimizedAffinity>
-3.90904

> <CNNscore>
0.7406358719

> <CNNaffinity>
5.2980933189

> <CNN_VS>
3.9239580631

> <CNNaffinity_variance>
1.4412792921

$$$$
Tryptamine_like


 15 16  0  0  0  0  0  0  0  0999 V2000
   17.1485   16.7061   43.2974 C   0  0  0  0  0  0  0  0  0  0  0  0
   17.3904   16.9688   41.9615 C   0  0  0  0  0  0  0  0  0  0  0  0
   18.0740   18.1507   41.8713 N   0  0  0  0  0  0  0  0  0  0  0  0
   18.2811   18.6789   43.1231 C   0  0  0  0  0  0  0  0  0  0  0  0
   18.9219   19.8634   43.5074 C   0  0  0  0  0  0  0  0  0  0  0  0
   18.9900   20.1499   44.8738 C   0  0  0  0  0  0  0  0  0  0  0  0
   18.4402   19.2839   45.8155 C   0  0  0  0  0  0  0  0  0  0  0  0
   17.8026   18.1048   45.4125 C   0  0  0  0  0  0  0  0  0  0  0  0
   17.7166   17.7916   44.0403 C   0  0  0  0  0  0  0  0  0  0  0  0
   18.3823   18.5817   41.0115 H   0  0  0  0  0  0  0  0  0  0  0  0
   16.4122   15.5204   43.8432 C   0  0  0  0  0  0  0  0  0  0  0  0
   17.7544   13.5314   43.1172 N   0  0  0  0  0  0  0  0  0  0  0  0
   17.3230   14.3525   44.2497 C   0  0  0  0  0  0  0  0  0  0  0  0
   18.3744   12.7950   43.4494 H   0  0  0  0  0  0  0  0  0  0  0  0
   18.2936   14.0977   42.4654 H   0  0  0  0  0  0  0  0  0  0  0  0
 12 13  1  0
 13 11  1  0
 11  1  1  0
  1  2  2  0
  2  3  1  0
  3  4  1  0
  4  5  2  0
  5  6  1  0
  6  7  2  0
  7  8  1  0
  8  9  2  0
  9  1  1  0
  9  4  1  0
 12 14  1  0
 12 15  1  0
  3 10  1  0
M  END
> <minimizedAffinity>
-3.72028

> <CNNscore>
0.7400154471

> <CNNaffinity>
5.9998784065

> <CNN_VS>
4.4400029182

> <CNNaffinity_variance>
5.1301131248

$$$$
Tryptamine_like


 15 16  0  0  0  0  0  0  0  0999 V2000
   23.0323    4.1338   55.8488 C   0  0  0  0  0  0  0  0  0  0  0  0
   23.3021    4.3982   54.5187 C   0  0  0  0  0  0  0  0  0  0  0  0
   22.3897    3.7263   53.7517 N   0  0  0  0  0  0  0  0  0  0  0  0
   21.5264    3.0152   54.5503 C   0  0  0  0  0  0  0  0  0  0  0  0
   20.4515    2.1872   54.2032 C   0  0  0  0  0  0  0  0  0  0  0  0
   19.7340    1.5866   55.2415 C   0  0  0  0  0  0  0  0  0  0  0  0
   20.0786    1.8085   56.5723 C   0  0  0  0  0  0  0  0  0  0  0  0
   21.1569    2.6386   56.9002 C   0  0  0  0  0  0  0  0  0  0  0  0
   21.9004    3.2555   55.8731 C   0  0  0  0  0  0  0  0  0  0  0  0
   22.3518    3.7423   52.7425 H   0  0  0  0  0  0  0  0  0  0  0  0
   23.8006    4.6561   57.0247 C   0  0  0  0  0  0  0  0  0  0  0  0
   22.8580    6.1955   58.7644 N   0  0  0  0  0  0  0  0  0  0  0  0
   23.4335    6.0934   57.4222 C   0  0  0  0  0  0  0  0  0  0  0  0
   22.6633    7.1724   58.9761 H   0  0  0  0  0  0  0  0  0  0  0  0
   23.5332    5.8741   59.4551 H   0  0  0  0  0  0  0  0  0  0  0  0
 12 13  1  0
 13 11  1  0
 11  1  1  0
  1  2  2  0
  2  3  1  0
  3  4  1  0
  4  5  2  0
  5  6  1  0
  6  7  2  0
  7  8  1  0
  8  9  2  0
  9  1  1  0
  9  4  1  0
 12 14  1  0
 12 15  1  0
  3 10  1  0
M  END
> <minimizedAffinity>
-3.80226

> <CNNscore>
0.7389835119

> <CNNaffinity>
4.8766617775

> <CNN_VS>
3.6037726402

> <CNNaffinity_variance>
0.6543653607

$$$$
Tryptamine_like


 15 16  0  0  0  0  0  0  0  0999 V2000
   18.5870   12.0049   42.9802 C   0  0  0  0  0  0  0  0  0  0  0  0
   18.3077   11.6879   44.2968 C   0  0  0  0  0  0  0  0  0  0  0  0
   17.6477   12.7439   44.8640 N   0  0  0  0  0  0  0  0  0  0  0  0
   17.4931   13.7572   43.9485 C   0  0  0  0  0  0  0  0  0  0  0  0
   16.8913   15.0142   44.0876 C   0  0  0  0  0  0  0  0  0  0  0  0
   16.8739   15.8521   42.9690 C   0  0  0  0  0  0  0  0  0  0  0  0
   17.4348   15.4458   41.7610 C   0  0  0  0  0  0  0  0  0  0  0  0
   18.0329   14.1860   41.6410 C   0  0  0  0  0  0  0  0  0  0  0  0
   18.0673   13.3208   42.7539 C   0  0  0  0  0  0  0  0  0  0  0  0
   17.3212   12.7824   45.8190 H   0  0  0  0  0  0  0  0  0  0  0  0
   19.3143   11.1358   41.9996 C   0  0  0  0  0  0  0  0  0  0  0  0
   20.7122    9.2405   42.8590 N   0  0  0  0  0  0  0  0  0  0  0  0
   19.3833    9.6566   42.4072 C   0  0  0  0  0  0  0  0  0  0  0  0
   20.6836    8.2617   43.1390 H   0  0  0  0  0  0  0  0  0  0  0  0
   20.9796    9.7743   43.6834 H   0  0  0  0  0  0  0  0  0  0  0  0
 12 13  1  0
 13 11  1  0
 11  1  1  0
  1  2  2  0
  2  3  1  0
  3  4  1  0
  4  5  2  0
  5  6  1  0
  6  7  2  0
  7  8  1  0
  8  9  2  0
  9  1  1  0
  9  4  1  0
 12 14  1  0
 12 15  1  0
  3 10  1  0
M  END
> <minimizedAffinity>
-3.88039

> <CNNscore>
0.7157780528

> <CNNaffinity>
5.0876717567

> <CNN_VS>
3.6416437626

> <CNNaffinity_variance>
0.6516984105

$$$$
Tryptamine_like


 15 16  0  0  0  0  0  0  0  0999 V2000
   18.7593   18.9906   43.6568 C   0  0  0  0  0  0  0  0  0  0  0  0
   19.4062   18.6629   42.4796 C   0  0  0  0  0  0  0  0  0  0  0  0
   18.9174   17.4634   42.0383 N   0  0  0  0  0  0  0  0  0  0  0  0
   17.9647   16.9877   42.9071 C   0  0  0  0  0  0  0  0  0  0  0  0
   17.2112   15.8080   42.8616 C   0  0  0  0  0  0  0  0  0  0  0  0
   16.2976   15.5819   43.8950 C   0  0  0  0  0  0  0  0  0  0  0  0
   16.1444   16.5012   44.9296 C   0  0  0  0  0  0  0  0  0  0  0  0
   16.9070   17.6746   44.9588 C   0  0  0  0  0  0  0  0  0  0  0  0
   17.8385   17.9275   43.9309 C   0  0  0  0  0  0  0  0  0  0  0  0
   19.2120   16.9875   41.1975 H   0  0  0  0  0  0  0  0  0  0  0  0
   19.0033   20.2155   44.4851 C   0  0  0  0  0  0  0  0  0  0  0  0
   20.8871   20.1957   46.1390 N   0  0  0  0  0  0  0  0  0  0  0  0
   19.4668   19.9180   45.9187 C   0  0  0  0  0  0  0  0  0  0  0  0
   21.1228   20.0047   47.1111 H   0  0  0  0  0  0  0  0  0  0  0  0
   21.0746   21.1835   45.9797 H   0  0  0  0  0  0  0  0  0  0  0  0
 12 13  1  0
 13 11  1  0
 11  1  1  0
  1  2  2  0
  2  3  1  0
  3  4  1  0
  4  5  2  0
  5  6  1  0
  6  7  2  0
  7  8  1  0
  8  9  2  0
  9  1  1  0
  9  4  1  0
 12 14  1  0
 12 15  1  0
  3 10  1  0
M  END
> <minimizedAffinity>
-4.03001

> <CNNscore>
0.7143988609

> <CNNaffinity>
5.0794167519

> <CNN_VS>
3.6287295818

> <CNNaffinity_variance>
0.6358761787

$$$$
Tryptamine_like


 15 16  0  0  0  0  0  0  0  0999 V2000
   18.4716   12.2263   43.2092 C   0  0  0  0  0  0  0  0  0  0  0  0
   19.0549   12.0875   41.9632 C   0  0  0  0  0  0  0  0  0  0  0  0
   18.7868   13.2136   41.2336 N   0  0  0  0  0  0  0  0  0  0  0  0
   18.0292   14.0913   41.9716 C   0  0  0  0  0  0  0  0  0  0  0  0
   17.5211   15.3511   41.6313 C   0  0  0  0  0  0  0  0  0  0  0  0
   16.7761   16.0325   42.5979 C   0  0  0  0  0  0  0  0  0  0  0  0
   16.5517   15.4748   43.8539 C   0  0  0  0  0  0  0  0  0  0  0  0
   17.0668   14.2138   44.1759 C   0  0  0  0  0  0  0  0  0  0  0  0
   17.8198   13.5023   43.2193 C   0  0  0  0  0  0  0  0  0  0  0  0
   19.0946   13.3817   40.2864 H   0  0  0  0  0  0  0  0  0  0  0  0
   18.5058   11.2163   44.3158 C   0  0  0  0  0  0  0  0  0  0  0  0
   18.9709    8.8339   44.9423 N   0  0  0  0  0  0  0  0  0  0  0  0
   19.0964    9.8594   43.9051 C   0  0  0  0  0  0  0  0  0  0  0  0
   19.3549    7.9556   44.5984 H   0  0  0  0  0  0  0  0  0  0  0  0
   17.9875    8.6656   45.1444 H   0  0  0  0  0  0  0  0  0  0  0  0
 12 13  1  0
 13 11  1  0
 11  1  1  0
  1  2  2  0
  2  3  1  0
  3  4  1  0
  4  5  2  0
  5  6  1  0
  6  7  2  0
  7  8  1  0
  8  9  2  0
  9  1  1  0
  9  4  1  0
 12 14  1  0
 12 15  1  0
  3 10  1  0
M  END
> <minimizedAffinity>
-4.13198

> <CNNscore>
0.7140747905

> <CNNaffinity>
4.9896688461

> <CNN_VS>
3.5629966259

> <CNNaffinity_variance>
1.1319252253

$$$$
Tryptamine_like


 15 16  0  0  0  0  0  0  0  0999 V2000
   18.1681   19.3970   42.5450 C   0  0  0  0  0  0  0  0  0  0  0  0
   18.5185   18.5989   41.4716 C   0  0  0  0  0  0  0  0  0  0  0  0
   18.0690   17.3293   41.7132 N   0  0  0  0  0  0  0  0  0  0  0  0
   17.4350   17.2712   42.9312 C   0  0  0  0  0  0  0  0  0  0  0  0
   16.8327   16.1883   43.5838 C   0  0  0  0  0  0  0  0  0  0  0  0
   16.2511   16.4256   44.8324 C   0  0  0  0  0  0  0  0  0  0  0  0
   16.2709   17.6961   45.4019 C   0  0  0  0  0  0  0  0  0  0  0  0
   16.8784   18.7665   44.7353 C   0  0  0  0  0  0  0  0  0  0  0  0
   17.4755   18.5556   43.4754 C   0  0  0  0  0  0  0  0  0  0  0  0
   18.1858   16.5413   41.0922 H   0  0  0  0  0  0  0  0  0  0  0  0
   18.4807   20.8545   42.6988 C   0  0  0  0  0  0  0  0  0  0  0  0
   16.3145   21.4619   41.5928 N   0  0  0  0  0  0  0  0  0  0  0  0
   17.7437   21.7601   41.7011 C   0  0  0  0  0  0  0  0  0  0  0  0
   15.8814   22.1120   40.9394 H   0  0  0  0  0  0  0  0  0  0  0  0
   15.8625   21.6056   42.4935 H   0  0  0  0  0  0  0  0  0  0  0  0
 12 13  1  0
 13 11  1  0
 11  1  1  0
  1  2  2  0
  2  3  1  0
  3  4  1  0
  4  5  2  0
  5  6  1  0
  6  7  2  0
  7  8  1  0
  8  9  2  0
  9  1  1  0
  9  4  1  0
 12 14  1  0
 12 15  1  0
  3 10  1  0
M  END
> <minimizedAffinity>
-4.00375

> <CNNscore>
0.7106891870

> <CNNaffinity>
4.7326354980

> <CNN_VS>
3.3634328842

> <CNNaffinity_variance>
0.6524314284

$$$$
Tryptamine_like


 15 16  0  0  0  0  0  0  0  0999 V2000
   18.9410   11.1104   42.0635 C   0  0  0  0  0  0  0  0  0  0  0  0
   18.5192   12.4216   42.1839 C   0  0  0  0  0  0  0  0  0  0  0  0
   18.1818   12.6479   43.4905 N   0  0  0  0  0  0  0  0  0  0  0  0
   18.3649   11.5073   44.2350 C   0  0  0  0  0  0  0  0  0  0  0  0
   18.1439   11.2750   45.5983 C   0  0  0  0  0  0  0  0  0  0  0  0
   18.4263    9.9985   46.0927 C   0  0  0  0  0  0  0  0  0  0  0  0
   18.9119    8.9974   45.2555 C   0  0  0  0  0  0  0  0  0  0  0  0
   19.1257    9.2477   43.8950 C   0  0  0  0  0  0  0  0  0  0  0  0
   18.8468   10.5256   43.3682 C   0  0  0  0  0  0  0  0  0  0  0  0
   17.8425   13.5238   43.8618 H   0  0  0  0  0  0  0  0  0  0  0  0
   19.3863   10.4403   40.7991 C   0  0  0  0  0  0  0  0  0  0  0  0
   18.5402   10.6147   38.4458 N   0  0  0  0  0  0  0  0  0  0  0  0
   19.2212   11.3064   39.5416 C   0  0  0  0  0  0  0  0  0  0  0  0
   18.4387   11.2494   37.6558 H   0  0  0  0  0  0  0  0  0  0  0  0
   17.6000   10.3521   38.7344 H   0  0  0  0  0  0  0  0  0  0  0  0
 12 13  1  0
 13 11  1  0
 11  1  1  0
  1  2  2  0
  2  3  1  0
  3  4  1  0
  4  5  2  0
  5  6  1  0
  6  7  2  0
  7  8  1  0
  8  9  2  0
  9  1  1  0
  9  4  1  0
 12 14  1  0
 12 15  1  0
  3 10  1  0
M  END
> <minimizedAffinity>
-4.60938

> <CNNscore>
0.7017199993

> <CNNaffinity>
4.7278561592

> <CNN_VS>
3.3176312447

> <CNNaffinity_variance>
0.5263401866

$$$$
Tryptamine_like


 15 16  0  0  0  0  0  0  0  0999 V2000
   18.8265   10.0578   44.8181 C   0  0  0  0  0  0  0  0  0  0  0  0
   19.3252    9.0254   44.0453 C   0  0  0  0  0  0  0  0  0  0  0  0
   19.4181    9.4611   42.7515 N   0  0  0  0  0  0  0  0  0  0  0  0
   18.9817   10.7606   42.6531 C   0  0  0  0  0  0  0  0  0  0  0  0
   18.8924   11.5998   41.5355 C   0  0  0  0  0  0  0  0  0  0  0  0
   18.4082   12.8958   41.7348 C   0  0  0  0  0  0  0  0  0  0  0  0
   18.0313   13.3326   43.0020 C   0  0  0  0  0  0  0  0  0  0  0  0
   18.1267   12.4792   44.1075 C   0  0  0  0  0  0  0  0  0  0  0  0
   18.6091   11.1655   43.9355 C   0  0  0  0  0  0  0  0  0  0  0  0
   19.7546    8.9113   41.9739 H   0  0  0  0  0  0  0  0  0  0  0  0
   18.5514   10.0034   46.2903 C   0  0  0  0  0  0  0  0  0  0  0  0
   19.0442    8.8033   48.4354 N   0  0  0  0  0  0  0  0  0  0  0  0
   19.4915    9.0700   47.0673 C   0  0  0  0  0  0  0  0  0  0  0  0
   19.6931    8.1596   48.8846 H   0  0  0  0  0  0  0  0  0  0  0  0
   18.1370    8.3419   48.4184 H   0  0  0  0  0  0  0  0  0  0  0  0
 12 13  1  0
 13 11  1  0
 11  1  1  0
  1  2  2  0
  2  3  1  0
  3  4  1  0
  4  5  2  0
  5  6  1  0
  6  7  2  0
  7  8  1  0
  8  9  2  0
  9  1  1  0
  9  4  1  0
 12 14  1  0
 12 15  1  0
  3 10  1  0
M  END
> <minimizedAffinity>
-4.26574

> <CNNscore>
0.6801027656

> <CNNaffinity>
5.0477099419

> <CNN_VS>
3.4329614639

> <CNNaffinity_variance>
1.0714231730

$$$$
Tryptamine_like


 15 16  0  0  0  0  0  0  0  0999 V2000
   22.4532    4.0427   54.3900 C   0  0  0  0  0  0  0  0  0  0  0  0
   23.1926    4.4473   55.4861 C   0  0  0  0  0  0  0  0  0  0  0  0
   22.7271    3.7845   56.5889 N   0  0  0  0  0  0  0  0  0  0  0  0
   21.6871    2.9550   56.2434 C   0  0  0  0  0  0  0  0  0  0  0  0
   20.9116    2.1018   57.0384 C   0  0  0  0  0  0  0  0  0  0  0  0
   19.9083    1.3612   56.4071 C   0  0  0  0  0  0  0  0  0  0  0  0
   19.6930    1.4700   55.0358 C   0  0  0  0  0  0  0  0  0  0  0  0
   20.4776    2.3288   54.2572 C   0  0  0  0  0  0  0  0  0  0  0  0
   21.4952    3.0903   54.8678 C   0  0  0  0  0  0  0  0  0  0  0  0
   23.0881    3.8874   57.5266 H   0  0  0  0  0  0  0  0  0  0  0  0
   22.6206    4.5336   52.9840 C   0  0  0  0  0  0  0  0  0  0  0  0
   21.9119    6.9190   53.2871 N   0  0  0  0  0  0  0  0  0  0  0  0
   22.9936    6.0199   52.8815 C   0  0  0  0  0  0  0  0  0  0  0  0
   22.2313    7.8839   53.2224 H   0  0  0  0  0  0  0  0  0  0  0  0
   21.6727    6.7535   54.2626 H   0  0  0  0  0  0  0  0  0  0  0  0
 12 13  1  0
 13 11  1  0
 11  1  1  0
  1  2  2  0
  2  3  1  0
  3  4  1  0
  4  5  2  0
  5  6  1  0
  6  7  2  0
  7  8  1  0
  8  9  2  0
  9  1  1  0
  9  4  1  0
 12 14  1  0
 12 15  1  0
  3 10  1  0
M  END
> <minimizedAffinity>
-3.81043

> <CNNscore>
0.6710609794

> <CNNaffinity>
4.6162142754

> <CNN_VS>
3.0977611542

> <CNNaffinity_variance>
0.0887502804

$$$$
Tryptamine_like


 15 16  0  0  0  0  0  0  0  0999 V2000
   18.2599   12.2496   46.1490 C   0  0  0  0  0  0  0  0  0  0  0  0
   18.1319   13.2844   45.2408 C   0  0  0  0  0  0  0  0  0  0  0  0
   18.3567   12.7872   43.9860 N   0  0  0  0  0  0  0  0  0  0  0  0
   18.6394   11.4437   44.0486 C   0  0  0  0  0  0  0  0  0  0  0  0
   18.9378   10.5361   43.0246 C   0  0  0  0  0  0  0  0  0  0  0  0
   19.1819    9.2081   43.3858 C   0  0  0  0  0  0  0  0  0  0  0  0
   19.1273    8.8066   44.7180 C   0  0  0  0  0  0  0  0  0  0  0  0
   18.8284    9.7281   45.7283 C   0  0  0  0  0  0  0  0  0  0  0  0
   18.5803   11.0752   45.3932 C   0  0  0  0  0  0  0  0  0  0  0  0
   18.3249   13.3248   43.1315 H   0  0  0  0  0  0  0  0  0  0  0  0
   18.1108   12.3587   47.6362 C   0  0  0  0  0  0  0  0  0  0  0  0
   18.1458   13.8916   49.6195 N   0  0  0  0  0  0  0  0  0  0  0  0
   18.4730   13.7403   48.2006 C   0  0  0  0  0  0  0  0  0  0  0  0
   18.4346   14.8151   49.9370 H   0  0  0  0  0  0  0  0  0  0  0  0
   18.6707   13.2144   50.1691 H   0  0  0  0  0  0  0  0  0  0  0  0
 12 13  1  0
 13 11  1  0
 11  1  1  0
  1  2  2  0
  2  3  1  0
  3  4  1  0
  4  5  2  0
  5  6  1  0
  6  7  2  0
  7  8  1  0
  8  9  2  0
  9  1  1  0
  9  4  1  0
 12 14  1  0
 12 15  1  0
  3 10  1  0
M  END
> <minimizedAffinity>
-3.88235

> <CNNscore>
0.6675979495

> <CNNaffinity>
5.1670355797

> <CNN_VS>
3.4495024681

> <CNNaffinity_variance>
0.9934308529

$$$$
Tryptamine_like


 15 16  0  0  0  0  0  0  0  0999 V2000
   18.7248   11.9559   42.0415 C   0  0  0  0  0  0  0  0  0  0  0  0
   19.2483   10.8587   41.3827 C   0  0  0  0  0  0  0  0  0  0  0  0
   19.3707    9.8340   42.2813 N   0  0  0  0  0  0  0  0  0  0  0  0
   18.9455   10.2365   43.5247 C   0  0  0  0  0  0  0  0  0  0  0  0
   18.8979    9.5310   44.7336 C   0  0  0  0  0  0  0  0  0  0  0  0
   18.4059   10.2017   45.8568 C   0  0  0  0  0  0  0  0  0  0  0  0
   17.9777   11.5239   45.7711 C   0  0  0  0  0  0  0  0  0  0  0  0
   18.0336   12.2135   44.5543 C   0  0  0  0  0  0  0  0  0  0  0  0
   18.5280   11.5626   43.4052 C   0  0  0  0  0  0  0  0  0  0  0  0
   19.7254    8.9123   42.0698 H   0  0  0  0  0  0  0  0  0  0  0  0
   18.4447   13.2973   41.4348 C   0  0  0  0  0  0  0  0  0  0  0  0
   17.4819   15.5757   41.8430 N   0  0  0  0  0  0  0  0  0  0  0  0
   18.0531   14.3753   42.4561 C   0  0  0  0  0  0  0  0  0  0  0  0
   17.2195   16.2364   42.5722 H   0  0  0  0  0  0  0  0  0  0  0  0
   16.6282   15.3354   41.3432 H   0  0  0  0  0  0  0  0  0  0  0  0
 12 13  1  0
 13 11  1  0
 11  1  1  0
  1  2  2  0
  2  3  1  0
  3  4  1  0
  4  5  2  0
  5  6  1  0
  6  7  2  0
  7  8  1  0
  8  9  2  0
  9  1  1  0
  9  4  1  0
 12 14  1  0
 12 15  1  0
  3 10  1  0
M  END
> <minimizedAffinity>
-4.33710

> <CNNscore>
0.6534742117

> <CNNaffinity>
4.1271481514

> <CNN_VS>
2.6969847679

> <CNNaffinity_variance>
0.0064872499

$$$$
Tryptamine_like


 15 16  0  0  0  0  0  0  0  0999 V2000
   18.9497   11.1206   41.9615 C   0  0  0  0  0  0  0  0  0  0  0  0
   18.5648   12.4426   42.0882 C   0  0  0  0  0  0  0  0  0  0  0  0
   18.2391   12.6735   43.3970 N   0  0  0  0  0  0  0  0  0  0  0  0
   18.3935   11.5256   44.1368 C   0  0  0  0  0  0  0  0  0  0  0  0
   18.1718   11.2947   45.5002 C   0  0  0  0  0  0  0  0  0  0  0  0
   18.4207   10.0091   45.9890 C   0  0  0  0  0  0  0  0  0  0  0  0
   18.8749    8.9979   45.1463 C   0  0  0  0  0  0  0  0  0  0  0  0
   19.0901    9.2471   43.7859 C   0  0  0  0  0  0  0  0  0  0  0  0
   18.8446   10.5341   43.2646 C   0  0  0  0  0  0  0  0  0  0  0  0
   17.9257   13.5571   43.7727 H   0  0  0  0  0  0  0  0  0  0  0  0
   19.3711   10.4430   40.6930 C   0  0  0  0  0  0  0  0  0  0  0  0
   21.1432    8.6739   40.8130 N   0  0  0  0  0  0  0  0  0  0  0  0
   19.7072    8.9540   40.8622 C   0  0  0  0  0  0  0  0  0  0  0  0
   21.2993    7.6780   40.9581 H   0  0  0  0  0  0  0  0  0  0  0  0
   21.6160    9.1592   41.5726 H   0  0  0  0  0  0  0  0  0  0  0  0
 12 13  1  0
 13 11  1  0
 11  1  1  0
  1  2  2  0
  2  3  1  0
  3  4  1  0
  4  5  2  0
  5  6  1  0
  6  7  2  0
  7  8  1  0
  8  9  2  0
  9  1  1  0
  9  4  1  0
 12 14  1  0
 12 15  1  0
  3 10  1  0
M  END
> <minimizedAffinity>
-4.19488

> <CNNscore>
0.6508567929

> <CNNaffinity>
3.7365562916

> <CNN_VS>
2.4319629669

> <CNNaffinity_variance>
0.4120057523

$$$$
Tryptamine_like


 15 16  0  0  0  0  0  0  0  0999 V2000
   10.9096   21.2968   46.0866 C   0  0  0  0  0  0  0  0  0  0  0  0
   10.1317   21.8797   47.0701 C   0  0  0  0  0  0  0  0  0  0  0  0
   10.5487   21.4089   48.2853 N   0  0  0  0  0  0  0  0  0  0  0  0
   11.5829   20.5184   48.1228 C   0  0  0  0  0  0  0  0  0  0  0  0
   12.3066   19.7928   49.0773 C   0  0  0  0  0  0  0  0  0  0  0  0
   13.3243   18.9520   48.6179 C   0  0  0  0  0  0  0  0  0  0  0  0
   13.6058   18.8448   47.2584 C   0  0  0  0  0  0  0  0  0  0  0  0
   12.8710   19.5773   46.3187 C   0  0  0  0  0  0  0  0  0  0  0  0
   11.8367   20.4313   46.7534 C   0  0  0  0  0  0  0  0  0  0  0  0
   10.1554   21.6705   49.1781 H   0  0  0  0  0  0  0  0  0  0  0  0
   10.7789   21.5216   44.6107 C   0  0  0  0  0  0  0  0  0  0  0  0
    9.4201   19.4395   44.2896 N   0  0  0  0  0  0  0  0  0  0  0  0
    9.5377   20.8669   43.9867 C   0  0  0  0  0  0  0  0  0  0  0  0
    8.5665   19.0737   43.8717 H   0  0  0  0  0  0  0  0  0  0  0  0
    9.3358   19.3056   45.2952 H   0  0  0  0  0  0  0  0  0  0  0  0
 12 13  1  0
 13 11  1  0
 11  1  1  0
  1  2  2  0
  2  3  1  0
  3  4  1  0
  4  5  2  0
  5  6  1  0
  6  7  2  0
  7  8  1  0
  8  9  2  0
  9  1  1  0
  9  4  1  0
 12 14  1  0
 12 15  1  0
  3 10  1  0
M  END
> <minimizedAffinity>
-4.66912

> <CNNscore>
0.6408272386

> <CNNaffinity>
3.9859664440

> <CNN_VS>
2.5543158054

> <CNNaffinity_variance>
0.0388094299

$$$$
Tryptamine_like


 15 16  0  0  0  0  0  0  0  0999 V2000
   18.2827   12.4772   43.5413 C   0  0  0  0  0  0  0  0  0  0  0  0
   18.1536   13.3465   42.4737 C   0  0  0  0  0  0  0  0  0  0  0  0
   18.5109   12.6830   41.3316 N   0  0  0  0  0  0  0  0  0  0  0  0
   18.8823   11.3928   41.6256 C   0  0  0  0  0  0  0  0  0  0  0  0
   19.3237   10.3667   40.7809 C   0  0  0  0  0  0  0  0  0  0  0  0
   19.6322    9.1344   41.3640 C   0  0  0  0  0  0  0  0  0  0  0  0
   19.5016    8.9387   42.7364 C   0  0  0  0  0  0  0  0  0  0  0  0
   19.0597    9.9765   43.5653 C   0  0  0  0  0  0  0  0  0  0  0  0
   18.7439   11.2312   43.0048 C   0  0  0  0  0  0  0  0  0  0  0  0
   18.5084   13.0788   40.4024 H   0  0  0  0  0  0  0  0  0  0  0  0
   18.0098   12.8003   44.9790 C   0  0  0  0  0  0  0  0  0  0  0  0
   18.4997   14.4923   46.7628 N   0  0  0  0  0  0  0  0  0  0  0  0
   18.2300   14.2767   45.3401 C   0  0  0  0  0  0  0  0  0  0  0  0
   18.6628   15.4835   46.9302 H   0  0  0  0  0  0  0  0  0  0  0  0
   19.3523   14.0048   47.0305 H   0  0  0  0  0  0  0  0  0  0  0  0
 12 13  1  0
 13 11  1  0
 11  1  1  0
  1  2  2  0
  2  3  1  0
  3  4  1  0
  4  5  2  0
  5  6  1  0
  6  7  2  0
  7  8  1  0
  8  9  2  0
  9  1  1  0
  9  4  1  0
 12 14  1  0
 12 15  1  0
  3 10  1  0
M  END
> <minimizedAffinity>
-4.01294

> <CNNscore>
0.6337479353

> <CNNaffinity>
4.3638339043

> <CNN_VS>
2.7655706406

> <CNNaffinity_variance>
0.3510998189

$$$$
Tryptamine_like


 15 16  0  0  0  0  0  0  0  0999 V2000
   19.0575   10.8226   41.8682 C   0  0  0  0  0  0  0  0  0  0  0  0
   19.5283    9.5742   41.5053 C   0  0  0  0  0  0  0  0  0  0  0  0
   19.5391    8.7772   42.6176 N   0  0  0  0  0  0  0  0  0  0  0  0
   19.0919    9.4787   43.7116 C   0  0  0  0  0  0  0  0  0  0  0  0
   18.9430    9.0732   45.0438 C   0  0  0  0  0  0  0  0  0  0  0  0
   18.4536   10.0119   45.9565 C   0  0  0  0  0  0  0  0  0  0  0  0
   18.1252   11.3025   45.5499 C   0  0  0  0  0  0  0  0  0  0  0  0
   18.2816   11.6903   44.2141 C   0  0  0  0  0  0  0  0  0  0  0  0
   18.7759   10.7649   43.2719 C   0  0  0  0  0  0  0  0  0  0  0  0
   19.8354    7.8119   42.6404 H   0  0  0  0  0  0  0  0  0  0  0  0
   18.9000   12.0036   40.9592 C   0  0  0  0  0  0  0  0  0  0  0  0
   18.5492   11.4196   38.5467 N   0  0  0  0  0  0  0  0  0  0  0  0
   19.5223   11.8090   39.5687 C   0  0  0  0  0  0  0  0  0  0  0  0
   19.0188   11.3340   37.6470 H   0  0  0  0  0  0  0  0  0  0  0  0
   17.8465   12.1488   38.4431 H   0  0  0  0  0  0  0  0  0  0  0  0
 12 13  1  0
 13 11  1  0
 11  1  1  0
  1  2  2  0
  2  3  1  0
  3  4  1  0
  4  5  2  0
  5  6  1  0
  6  7  2  0
  7  8  1  0
  8  9  2  0
  9  1  1  0
  9  4  1  0
 12 14  1  0
 12 15  1  0
  3 10  1  0
M  END
> <minimizedAffinity>
-4.47414

> <CNNscore>
0.6296643615

> <CNNaffinity>
4.1465148926

> <CNN_VS>
2.6109125614

> <CNNaffinity_variance>
0.1353284866

$$$$
Tryptamine_like


 15 16  0  0  0  0  0  0  0  0999 V2000
   18.4189   10.9144   45.1410 C   0  0  0  0  0  0  0  0  0  0  0  0
   18.8623    9.6053   45.1004 C   0  0  0  0  0  0  0  0  0  0  0  0
   19.2127    9.3084   43.8115 N   0  0  0  0  0  0  0  0  0  0  0  0
   19.0008   10.3949   42.9970 C   0  0  0  0  0  0  0  0  0  0  0  0
   19.2090   10.5442   41.6202 C   0  0  0  0  0  0  0  0  0  0  0  0
   18.9057   11.7833   41.0491 C   0  0  0  0  0  0  0  0  0  0  0  0
   18.4160   12.8297   41.8265 C   0  0  0  0  0  0  0  0  0  0  0  0
   18.2134   12.6617   43.2012 C   0  0  0  0  0  0  0  0  0  0  0  0
   18.5082   11.4214   43.8038 C   0  0  0  0  0  0  0  0  0  0  0  0
   19.5726    8.4192   43.4952 H   0  0  0  0  0  0  0  0  0  0  0  0
   17.9227   11.6397   46.3549 C   0  0  0  0  0  0  0  0  0  0  0  0
   18.4353   13.3894   48.0754 N   0  0  0  0  0  0  0  0  0  0  0  0
   18.9836   12.5172   47.0354 C   0  0  0  0  0  0  0  0  0  0  0  0
   19.1904   13.9219   48.5037 H   0  0  0  0  0  0  0  0  0  0  0  0
   18.0174   12.8265   48.8134 H   0  0  0  0  0  0  0  0  0  0  0  0
 12 13  1  0
 13 11  1  0
 11  1  1  0
  1  2  2  0
  2  3  1  0
  3  4  1  0
  4  5  2  0
  5  6  1  0
  6  7  2  0
  7  8  1  0
  8  9  2  0
  9  1  1  0
  9  4  1  0
 12 14  1  0
 12 15  1  0
  3 10  1  0
M  END
> <minimizedAffinity>
-4.12243

> <CNNscore>
0.6241545081

> <CNNaffinity>
4.4638276100

> <CNN_VS>
2.7861180305

> <CNNaffinity_variance>
0.0430023558

$$$$
Tryptamine_like


 15 16  0  0  0  0  0  0  0  0999 V2000
   18.3852   19.4288   43.2515 C   0  0  0  0  0  0  0  0  0  0  0  0
   18.3186   19.7987   44.5821 C   0  0  0  0  0  0  0  0  0  0  0  0
   17.6895   18.8013   45.2761 N   0  0  0  0  0  0  0  0  0  0  0  0
   17.3311   17.7818   44.4269 C   0  0  0  0  0  0  0  0  0  0  0  0
   16.6680   16.5773   44.6931 C   0  0  0  0  0  0  0  0  0  0  0  0
   16.4368   15.7133   43.6190 C   0  0  0  0  0  0  0  0  0  0  0  0
   16.8549   16.0423   42.3322 C   0  0  0  0  0  0  0  0  0  0  0  0
   17.5155   17.2513   42.0850 C   0  0  0  0  0  0  0  0  0  0  0  0
   17.7598   18.1436   43.1492 C   0  0  0  0  0  0  0  0  0  0  0  0
   17.5074   18.8075   46.2696 H   0  0  0  0  0  0  0  0  0  0  0  0
   18.9806   20.2389   42.1401 C   0  0  0  0  0  0  0  0  0  0  0  0
   17.3398   22.0490   41.5781 N   0  0  0  0  0  0  0  0  0  0  0  0
   18.6278   21.7325   42.1976 C   0  0  0  0  0  0  0  0  0  0  0  0
   17.1537   23.0457   41.6737 H   0  0  0  0  0  0  0  0  0  0  0  0
   16.5920   21.5621   42.0679 H   0  0  0  0  0  0  0  0  0  0  0  0
 12 13  1  0
 13 11  1  0
 11  1  1  0
  1  2  2  0
  2  3  1  0
  3  4  1  0
  4  5  2  0
  5  6  1  0
  6  7  2  0
  7  8  1  0
  8  9  2  0
  9  1  1  0
  9  4  1  0
 12 14  1  0
 12 15  1  0
  3 10  1  0
M  END
> <minimizedAffinity>
-3.94191

> <CNNscore>
0.6239881516

> <CNNaffinity>
4.7758126259

> <CNN_VS>
2.9800505638

> <CNNaffinity_variance>
0.8185797334

$$$$
MET_like


 17 18  0  0  0  0  0  0  0  0999 V2000
   17.8337   15.5193   42.8878 C   0  0  0  0  0  0  0  0  0  0  0  0
   18.5845   16.2620   41.9978 C   0  0  0  0  0  0  0  0  0  0  0  0
   18.4504   17.5868   42.3220 N   0  0  0  0  0  0  0  0  0  0  0  0
   17.6336   17.7246   43.4193 C   0  0  0  0  0  0  0  0  0  0  0  0
   17.2289   18.8804   44.0970 C   0  0  0  0  0  0  0  0  0  0  0  0
   16.3716   18.7247   45.1891 C   0  0  0  0  0  0  0  0  0  0  0  0
   15.9351   17.4629   45.5832 C   0  0  0  0  0  0  0  0  0  0  0  0
   16.3495   16.3166   44.8945 C   0  0  0  0  0  0  0  0  0  0  0  0
   17.2193   16.4459   43.7913 C   0  0  0  0  0  0  0  0  0  0  0  0
   18.8815   18.3592   41.8303 H   0  0  0  0  0  0  0  0  0  0  0  0
   17.6999   14.0332   42.9073 C   0  0  0  0  0  0  0  0  0  0  0  0
   18.4026   13.3988   41.7038 C   0  0  0  0  0  0  0  0  0  0  0  0
   18.6076   11.9002   41.8814 N   0  0  0  0  0  0  0  0  0  0  0  0
   18.6624   11.5328   43.3437 C   0  0  0  0  0  0  0  0  0  0  0  0
   17.7480   11.4578   41.5288 H   0  0  0  0  0  0  0  0  0  0  0  0
   19.2656   10.1667   40.1629 C   0  0  0  0  0  0  0  0  0  0  0  0
   19.7331   11.2813   41.0797 C   0  0  0  0  0  0  0  0  0  0  0  0
 16 17  1  0
 17 13  1  0
 13 14  1  0
 13 12  1  0
 12 11  1  0
 11  1  1  0
  1  2  2  0
  2  3  1  0
  3  4  1  0
  4  5  2  0
  5  6  1  0
  6  7  2  0
  7  8  1  0
  8  9  2  0
  9  1  1  0
  9  4  1  0
 13 15  1  0
  3 10  1  0
M  CHG 1  13   1
M  END
> <minimizedAffinity>
-4.19239

> <CNNscore>
0.8342714906

> <CNNaffinity>
6.1681189537

> <CNN_VS>
5.1458859444

> <CNNaffinity_variance>
2.8909842968

$$$$
MET_like


 17 18  0  0  0  0  0  0  0  0999 V2000
   17.4596   15.0397   43.4479 C   0  0  0  0  0  0  0  0  0  0  0  0
   18.1983   15.3594   42.3256 C   0  0  0  0  0  0  0  0  0  0  0  0
   18.2795   16.7247   42.2380 N   0  0  0  0  0  0  0  0  0  0  0  0
   17.6165   17.3062   43.2927 C   0  0  0  0  0  0  0  0  0  0  0  0
   17.4482   18.6589   43.6105 C   0  0  0  0  0  0  0  0  0  0  0  0
   16.7055   18.9688   44.7525 C   0  0  0  0  0  0  0  0  0  0  0  0
   16.1514   17.9644   45.5414 C   0  0  0  0  0  0  0  0  0  0  0  0
   16.3294   16.6159   45.2096 C   0  0  0  0  0  0  0  0  0  0  0  0
   17.0795   16.2759   44.0641 C   0  0  0  0  0  0  0  0  0  0  0  0
   18.7520   17.2401   41.5064 H   0  0  0  0  0  0  0  0  0  0  0  0
   17.1316   13.6659   43.9290 C   0  0  0  0  0  0  0  0  0  0  0  0
   18.3791   12.7783   43.9605 C   0  0  0  0  0  0  0  0  0  0  0  0
   18.1591   11.5048   44.7661 N   0  0  0  0  0  0  0  0  0  0  0  0
   18.2781   11.7752   46.2456 C   0  0  0  0  0  0  0  0  0  0  0  0
   17.1724   11.2508   44.6215 H   0  0  0  0  0  0  0  0  0  0  0  0
   18.8533    9.1335   45.3011 C   0  0  0  0  0  0  0  0  0  0  0  0
   18.9522   10.2923   44.3269 C   0  0  0  0  0  0  0  0  0  0  0  0
 16 17  1  0
 17 13  1  0
 13 14  1  0
 13 12  1  0
 12 11  1  0
 11  1  1  0
  1  2  2  0
  2  3  1  0
  3  4  1  0
  4  5  2  0
  5  6  1  0
  6  7  2  0
  7  8  1  0
  8  9  2  0
  9  1  1  0
  9  4  1  0
 13 15  1  0
  3 10  1  0
M  CHG 1  13   1
M  END
> <minimizedAffinity>
-4.30725

> <CNNscore>
0.8280771971

> <CNNaffinity>
6.6150703430

> <CNN_VS>
5.4777889252

> <CNNaffinity_variance>
5.4714035988

$$$$
MET_like


 17 18  0  0  0  0  0  0  0  0999 V2000
   22.5115    4.0643   54.2674 C   0  0  0  0  0  0  0  0  0  0  0  0
   23.2292    4.5335   55.3501 C   0  0  0  0  0  0  0  0  0  0  0  0
   22.7400    3.9362   56.4825 N   0  0  0  0  0  0  0  0  0  0  0  0
   21.7209    3.0722   56.1586 C   0  0  0  0  0  0  0  0  0  0  0  0
   20.9446    2.2508   56.9843 C   0  0  0  0  0  0  0  0  0  0  0  0
   19.9540    1.4738   56.3786 C   0  0  0  0  0  0  0  0  0  0  0  0
   19.7479    1.5207   55.0026 C   0  0  0  0  0  0  0  0  0  0  0  0
   20.5335    2.3477   54.1907 C   0  0  0  0  0  0  0  0  0  0  0  0
   21.5440    3.1387   54.7768 C   0  0  0  0  0  0  0  0  0  0  0  0
   23.0703    4.1024   57.4246 H   0  0  0  0  0  0  0  0  0  0  0  0
   22.7161    4.4441   52.8390 C   0  0  0  0  0  0  0  0  0  0  0  0
   22.6381    5.9622   52.6537 C   0  0  0  0  0  0  0  0  0  0  0  0
   22.3388    6.3512   51.2120 N   0  0  0  0  0  0  0  0  0  0  0  0
   23.6122    6.4858   50.4141 C   0  0  0  0  0  0  0  0  0  0  0  0
   21.8524    5.5429   50.8007 H   0  0  0  0  0  0  0  0  0  0  0  0
   20.5041    7.3718   49.8037 C   0  0  0  0  0  0  0  0  0  0  0  0
   21.4001    7.5232   51.0185 C   0  0  0  0  0  0  0  0  0  0  0  0
 16 17  1  0
 17 13  1  0
 13 14  1  0
 13 12  1  0
 12 11  1  0
 11  1  1  0
  1  2  2  0
  2  3  1  0
  3  4  1  0
  4  5  2  0
  5  6  1  0
  6  7  2  0
  7  8  1  0
  8  9  2  0
  9  1  1  0
  9  4  1  0
 13 15  1  0
  3 10  1  0
M  CHG 1  13   1
M  END
> <minimizedAffinity>
-4.08112

> <CNNscore>
0.6935889125

> <CNNaffinity>
5.3711161613

> <CNN_VS>
3.7253465652

> <CNNaffinity_variance>
1.6689921618

$$$$
MET_like


 17 18  0  0  0  0  0  0  0  0999 V2000
   17.7885   18.4183   43.8729 C   0  0  0  0  0  0  0  0  0  0  0  0
   18.5288   19.0194   44.8720 C   0  0  0  0  0  0  0  0  0  0  0  0
   18.9409   20.2470   44.4233 N   0  0  0  0  0  0  0  0  0  0  0  0
   18.4716   20.4668   43.1499 C   0  0  0  0  0  0  0  0  0  0  0  0
   18.6369   21.5755   42.3118 C   0  0  0  0  0  0  0  0  0  0  0  0
   18.0524   21.5224   41.0439 C   0  0  0  0  0  0  0  0  0  0  0  0
   17.3350   20.4027   40.6319 C   0  0  0  0  0  0  0  0  0  0  0  0
   17.1788   19.3018   41.4828 C   0  0  0  0  0  0  0  0  0  0  0  0
   17.7549   19.3322   42.7702 C   0  0  0  0  0  0  0  0  0  0  0  0
   19.5108   20.9022   44.9430 H   0  0  0  0  0  0  0  0  0  0  0  0
   17.1397   17.0762   43.9385 C   0  0  0  0  0  0  0  0  0  0  0  0
   16.8586   16.6679   45.3875 C   0  0  0  0  0  0  0  0  0  0  0  0
   17.6675   15.4483   45.8088 N   0  0  0  0  0  0  0  0  0  0  0  0
   18.6400   15.7993   46.9076 C   0  0  0  0  0  0  0  0  0  0  0  0
   16.9939   14.8050   46.2464 H   0  0  0  0  0  0  0  0  0  0  0  0
   17.5073   13.4284   44.2969 C   0  0  0  0  0  0  0  0  0  0  0  0
   18.3092   14.6546   44.6905 C   0  0  0  0  0  0  0  0  0  0  0  0
 16 17  1  0
 17 13  1  0
 13 14  1  0
 13 12  1  0
 12 11  1  0
 11  1  1  0
  1  2  2  0
  2  3  1  0
  3  4  1  0
  4  5  2  0
  5  6  1  0
  6  7  2  0
  7  8  1  0
  8  9  2  0
  9  1  1  0
  9  4  1  0
 13 15  1  0
  3 10  1  0
M  CHG 1  13   1
M  END
> <minimizedAffinity>
-3.96695

> <CNNscore>
0.6863102913

> <CNNaffinity>
5.6117591858

> <CNN_VS>
3.8514080048

> <CNNaffinity_variance>
1.7269005775

$$$$
MET_like


 17 18  0  0  0  0  0  0  0  0999 V2000
   18.4363   17.0058   41.8139 C   0  0  0  0  0  0  0  0  0  0  0  0
   19.6311   16.5269   41.3134 C   0  0  0  0  0  0  0  0  0  0  0  0
   19.8014   15.2426   41.7606 N   0  0  0  0  0  0  0  0  0  0  0  0
   18.7305   14.8664   42.5364 C   0  0  0  0  0  0  0  0  0  0  0  0
   18.4764   13.6536   43.1873 C   0  0  0  0  0  0  0  0  0  0  0  0
   17.2969   13.5509   43.9291 C   0  0  0  0  0  0  0  0  0  0  0  0
   16.4106   14.6208   44.0175 C   0  0  0  0  0  0  0  0  0  0  0  0
   16.6797   15.8273   43.3600 C   0  0  0  0  0  0  0  0  0  0  0  0
   17.8614   15.9553   42.6002 C   0  0  0  0  0  0  0  0  0  0  0  0
   20.5968   14.6502   41.5590 H   0  0  0  0  0  0  0  0  0  0  0  0
   17.8538   18.3578   41.5701 C   0  0  0  0  0  0  0  0  0  0  0  0
   18.9523   19.4022   41.3517 C   0  0  0  0  0  0  0  0  0  0  0  0
   19.0251   20.4079   42.4930 N   0  0  0  0  0  0  0  0  0  0  0  0
   18.3183   19.8848   43.7189 C   0  0  0  0  0  0  0  0  0  0  0  0
   20.0180   20.4554   42.7593 H   0  0  0  0  0  0  0  0  0  0  0  0
   17.2613   21.9331   41.5162 C   0  0  0  0  0  0  0  0  0  0  0  0
   18.6339   21.8307   42.1541 C   0  0  0  0  0  0  0  0  0  0  0  0
 16 17  1  0
 17 13  1  0
 13 14  1  0
 13 12  1  0
 12 11  1  0
 11  1  1  0
  1  2  2  0
  2  3  1  0
  3  4  1  0
  4  5  2  0
  5  6  1  0
  6  7  2  0
  7  8  1  0
  8  9  2  0
  9  1  1  0
  9  4  1  0
 13 15  1  0
  3 10  1  0
M  CHG 1  13   1
M  END
> <minimizedAffinity>
-4.01008

> <CNNscore>
0.6784786582

> <CNNaffinity>
5.6865925789

> <CNN_VS>
3.8582317829

> <CNNaffinity_variance>
2.4017620087

$$$$
MET_like


 17 18  0  0  0  0  0  0  0  0999 V2000
   18.0520   12.0464   44.3899 C   0  0  0  0  0  0  0  0  0  0  0  0
   18.7354   11.3111   43.4413 C   0  0  0  0  0  0  0  0  0  0  0  0
   18.8151   12.0566   42.2940 N   0  0  0  0  0  0  0  0  0  0  0  0
   18.2061   13.2752   42.4789 C   0  0  0  0  0  0  0  0  0  0  0  0
   18.0566   14.3472   41.5915 C   0  0  0  0  0  0  0  0  0  0  0  0
   17.3716   15.4760   42.0482 C   0  0  0  0  0  0  0  0  0  0  0  0
   16.8548   15.5266   43.3398 C   0  0  0  0  0  0  0  0  0  0  0  0
   17.0132   14.4455   44.2153 C   0  0  0  0  0  0  0  0  0  0  0  0
   17.7054   13.2957   43.7804 C   0  0  0  0  0  0  0  0  0  0  0  0
   19.2523   11.7617   41.4302 H   0  0  0  0  0  0  0  0  0  0  0  0
   17.7450   11.6204   45.7866 C   0  0  0  0  0  0  0  0  0  0  0  0
   18.2813   10.2135   46.0663 C   0  0  0  0  0  0  0  0  0  0  0  0
   19.1700   10.1717   47.3023 N   0  0  0  0  0  0  0  0  0  0  0  0
   20.4047   11.0166   47.1078 C   0  0  0  0  0  0  0  0  0  0  0  0
   18.6378   10.6466   48.0441 H   0  0  0  0  0  0  0  0  0  0  0  0
   19.0169    8.6103   49.2847 C   0  0  0  0  0  0  0  0  0  0  0  0
   19.4825    8.7963   47.8529 C   0  0  0  0  0  0  0  0  0  0  0  0
 16 17  1  0
 17 13  1  0
 13 14  1  0
 13 12  1  0
 12 11  1  0
 11  1  1  0
  1  2  2  0
  2  3  1  0
  3  4  1  0
  4  5  2  0
  5  6  1  0
  6  7  2  0
  7  8  1  0
  8  9  2  0
  9  1  1  0
  9  4  1  0
 13 15  1  0
  3 10  1  0
M  CHG 1  13   1
M  END
> <minimizedAffinity>
-4.39518

> <CNNscore>
0.6733914018

> <CNNaffinity>
5.9575881958

> <CNN_VS>
4.0117888451

> <CNNaffinity_variance>
1.3055181503

$$$$
MET_like


 17 18  0  0  0  0  0  0  0  0999 V2000
   18.6509   10.0793   45.6861 C   0  0  0  0  0  0  0  0  0  0  0  0
   19.2041    9.6421   44.4986 C   0  0  0  0  0  0  0  0  0  0  0  0
   20.0212    8.5760   44.7709 N   0  0  0  0  0  0  0  0  0  0  0  0
   20.0028    8.2982   46.1173 C   0  0  0  0  0  0  0  0  0  0  0  0
   20.6718    7.3014   46.8368 C   0  0  0  0  0  0  0  0  0  0  0  0
   20.4765    7.2585   48.2196 C   0  0  0  0  0  0  0  0  0  0  0  0
   19.6478    8.1790   48.8551 C   0  0  0  0  0  0  0  0  0  0  0  0
   18.9856    9.1699   48.1205 C   0  0  0  0  0  0  0  0  0  0  0  0
   19.1618    9.2319   46.7221 C   0  0  0  0  0  0  0  0  0  0  0  0
   20.5662    8.0635   44.0894 H   0  0  0  0  0  0  0  0  0  0  0  0
   17.6944   11.2125   45.8519 C   0  0  0  0  0  0  0  0  0  0  0  0
   18.3610   12.5515   45.5232 C   0  0  0  0  0  0  0  0  0  0  0  0
   17.6186   13.3112   44.4318 N   0  0  0  0  0  0  0  0  0  0  0  0
   18.1019   12.8989   43.0634 C   0  0  0  0  0  0  0  0  0  0  0  0
   16.6440   12.9841   44.4785 H   0  0  0  0  0  0  0  0  0  0  0  0
   16.2693   15.4114   44.0326 C   0  0  0  0  0  0  0  0  0  0  0  0
   17.5440   14.8142   44.5981 C   0  0  0  0  0  0  0  0  0  0  0  0
 16 17  1  0
 17 13  1  0
 13 14  1  0
 13 12  1  0
 12 11  1  0
 11  1  1  0
  1  2  2  0
  2  3  1  0
  3  4  1  0
  4  5  2  0
  5  6  1  0
  6  7  2  0
  7  8  1  0
  8  9  2  0
  9  1  1  0
  9  4  1  0
 13 15  1  0
  3 10  1  0
M  CHG 1  13   1
M  END
> <minimizedAffinity>
-4.42664

> <CNNscore>
0.6578693986

> <CNNaffinity>
5.3760390282

> <CNN_VS>
3.5367314816

> <CNNaffinity_variance>
0.5478023887

$$$$
MET_like


 17 18  0  0  0  0  0  0  0  0999 V2000
   19.1300    9.3183   45.2349 C   0  0  0  0  0  0  0  0  0  0  0  0
   18.3643   10.3186   45.8012 C   0  0  0  0  0  0  0  0  0  0  0  0
   18.3977   10.1678   47.1630 N   0  0  0  0  0  0  0  0  0  0  0  0
   19.1842    9.0917   47.5002 C   0  0  0  0  0  0  0  0  0  0  0  0
   19.5069    8.5765   48.7609 C   0  0  0  0  0  0  0  0  0  0  0  0
   20.3294    7.4482   48.8088 C   0  0  0  0  0  0  0  0  0  0  0  0
   20.8059    6.8587   47.6411 C   0  0  0  0  0  0  0  0  0  0  0  0
   20.4739    7.3869   46.3877 C   0  0  0  0  0  0  0  0  0  0  0  0
   19.6489    8.5288   46.3119 C   0  0  0  0  0  0  0  0  0  0  0  0
   17.9148   10.7541   47.8316 H   0  0  0  0  0  0  0  0  0  0  0  0
   19.3760    9.1102   43.7780 C   0  0  0  0  0  0  0  0  0  0  0  0
   19.8624   10.3993   43.1095 C   0  0  0  0  0  0  0  0  0  0  0  0
   18.9163   10.8714   42.0135 N   0  0  0  0  0  0  0  0  0  0  0  0
   19.2855   10.2630   40.6832 C   0  0  0  0  0  0  0  0  0  0  0  0
   17.9986   10.4670   42.2445 H   0  0  0  0  0  0  0  0  0  0  0  0
   18.0087   12.9312   43.1645 C   0  0  0  0  0  0  0  0  0  0  0  0
   18.6849   12.3653   41.9300 C   0  0  0  0  0  0  0  0  0  0  0  0
 16 17  1  0
 17 13  1  0
 13 14  1  0
 13 12  1  0
 12 11  1  0
 11  1  1  0
  1  2  2  0
  2  3  1  0
  3  4  1  0
  4  5  2  0
  5  6  1  0
  6  7  2  0
  7  8  1  0
  8  9  2  0
  9  1  1  0
  9  4  1  0
 13 15  1  0
  3 10  1  0
M  CHG 1  13   1
M  END
> <minimizedAffinity>
-4.25926

> <CNNscore>
0.6250921488

> <CNNaffinity>
5.1485462189

> <CNN_VS>
3.2183158398

> <CNNaffinity_variance>
0.2364245206

$$$$
MET_like


 17 18  0  0  0  0  0  0  0  0999 V2000
   18.2965   17.8905   41.8459 C   0  0  0  0  0  0  0  0  0  0  0  0
   19.5625   17.9649   42.3928 C   0  0  0  0  0  0  0  0  0  0  0  0
   19.8782   19.2867   42.5696 N   0  0  0  0  0  0  0  0  0  0  0  0
   18.8338   20.0811   42.1593 C   0  0  0  0  0  0  0  0  0  0  0  0
   18.7114   21.4754   42.1641 C   0  0  0  0  0  0  0  0  0  0  0  0
   17.5255   22.0236   41.6690 C   0  0  0  0  0  0  0  0  0  0  0  0
   16.5060   21.2080   41.1859 C   0  0  0  0  0  0  0  0  0  0  0  0
   16.6443   19.8148   41.1884 C   0  0  0  0  0  0  0  0  0  0  0  0
   17.8299   19.2357   41.6876 C   0  0  0  0  0  0  0  0  0  0  0  0
   20.7508   19.6382   42.9427 H   0  0  0  0  0  0  0  0  0  0  0  0
   17.5553   16.6430   41.4980 C   0  0  0  0  0  0  0  0  0  0  0  0
   18.2188   15.4127   42.1234 C   0  0  0  0  0  0  0  0  0  0  0  0
   17.7033   15.1331   43.5289 N   0  0  0  0  0  0  0  0  0  0  0  0
   17.8866   13.6801   43.8915 C   0  0  0  0  0  0  0  0  0  0  0  0
   18.3312   15.6458   44.1628 H   0  0  0  0  0  0  0  0  0  0  0  0
   16.2958   16.6627   44.9677 C   0  0  0  0  0  0  0  0  0  0  0  0
   16.3134   15.6441   43.8436 C   0  0  0  0  0  0  0  0  0  0  0  0
 16 17  1  0
 17 13  1  0
 13 14  1  0
 13 12  1  0
 12 11  1  0
 11  1  1  0
  1  2  2  0
  2  3  1  0
  3  4  1  0
  4  5  2  0
  5  6  1  0
  6  7  2  0
  7  8  1  0
  8  9  2  0
  9  1  1  0
  9  4  1  0
 13 15  1  0
  3 10  1  0
M  CHG 1  13   1
M  END
> <minimizedAffinity>
-4.22883

> <CNNscore>
0.6173480749

> <CNNaffinity>
5.2271461487

> <CNN_VS>
3.2269685268

> <CNNaffinity_variance>
1.1639794111

$$$$
MET_like


 17 18  0  0  0  0  0  0  0  0999 V2000
   18.3536   11.1982   44.5846 C   0  0  0  0  0  0  0  0  0  0  0  0
   18.9500   10.3405   43.6812 C   0  0  0  0  0  0  0  0  0  0  0  0
   19.0725   10.9944   42.4830 N   0  0  0  0  0  0  0  0  0  0  0  0
   18.5777   12.2727   42.5894 C   0  0  0  0  0  0  0  0  0  0  0  0
   18.5061   13.2896   41.6304 C   0  0  0  0  0  0  0  0  0  0  0  0
   17.9331   14.5043   42.0153 C   0  0  0  0  0  0  0  0  0  0  0  0
   17.4488   14.6906   43.3071 C   0  0  0  0  0  0  0  0  0  0  0  0
   17.5283   13.6630   44.2547 C   0  0  0  0  0  0  0  0  0  0  0  0
   18.1070   12.4283   43.8929 C   0  0  0  0  0  0  0  0  0  0  0  0
   19.4644   10.6022   41.6364 H   0  0  0  0  0  0  0  0  0  0  0  0
   18.0382   10.8994   46.0121 C   0  0  0  0  0  0  0  0  0  0  0  0
   19.1647   11.3682   46.9374 C   0  0  0  0  0  0  0  0  0  0  0  0
   18.9517   10.9187   48.3768 N   0  0  0  0  0  0  0  0  0  0  0  0
   18.9720   12.0972   49.3186 C   0  0  0  0  0  0  0  0  0  0  0  0
   17.9868   10.5632   48.4176 H   0  0  0  0  0  0  0  0  0  0  0  0
   19.0209    8.5406   49.2317 C   0  0  0  0  0  0  0  0  0  0  0  0
   19.8199    9.7735   48.8533 C   0  0  0  0  0  0  0  0  0  0  0  0
 16 17  1  0
 17 13  1  0
 13 14  1  0
 13 12  1  0
 12 11  1  0
 11  1  1  0
  1  2  2  0
  2  3  1  0
  3  4  1  0
  4  5  2  0
  5  6  1  0
  6  7  2  0
  7  8  1  0
  8  9  2  0
  9  1  1  0
  9  4  1  0
 13 15  1  0
  3 10  1  0
M  CHG 1  13   1
M  END
> <minimizedAffinity>
-4.25675

> <CNNscore>
0.6069521904

> <CNNaffinity>
5.7545218468

> <CNN_VS>
3.4927196503

> <CNNaffinity_variance>
0.7012255192

$$$$
MET_like


 17 18  0  0  0  0  0  0  0  0999 V2000
   18.4132   11.1656   44.5090 C   0  0  0  0  0  0  0  0  0  0  0  0
   18.9556   10.2521   43.6265 C   0  0  0  0  0  0  0  0  0  0  0  0
   19.0608   10.8503   42.3980 N   0  0  0  0  0  0  0  0  0  0  0  0
   18.6079   12.1468   42.4633 C   0  0  0  0  0  0  0  0  0  0  0  0
   18.5373   13.1239   41.4636 C   0  0  0  0  0  0  0  0  0  0  0  0
   18.0131   14.3711   41.8122 C   0  0  0  0  0  0  0  0  0  0  0  0
   17.5744   14.6271   43.1084 C   0  0  0  0  0  0  0  0  0  0  0  0
   17.6522   13.6387   44.0969 C   0  0  0  0  0  0  0  0  0  0  0  0
   18.1823   12.3722   43.7722 C   0  0  0  0  0  0  0  0  0  0  0  0
   19.4146   10.4105   41.5580 H   0  0  0  0  0  0  0  0  0  0  0  0
   18.1330   10.9376   45.9568 C   0  0  0  0  0  0  0  0  0  0  0  0
   19.3818   10.4404   46.6904 C   0  0  0  0  0  0  0  0  0  0  0  0
   19.2893    8.9629   47.0476 N   0  0  0  0  0  0  0  0  0  0  0  0
   19.2900    8.7686   48.5438 C   0  0  0  0  0  0  0  0  0  0  0  0
   18.3545    8.6604   46.7413 H   0  0  0  0  0  0  0  0  0  0  0  0
   20.8012    6.9453   47.2337 C   0  0  0  0  0  0  0  0  0  0  0  0
   20.2595    8.0429   46.3373 C   0  0  0  0  0  0  0  0  0  0  0  0
 16 17  1  0
 17 13  1  0
 13 14  1  0
 13 12  1  0
 12 11  1  0
 11  1  1  0
  1  2  2  0
  2  3  1  0
  3  4  1  0
  4  5  2  0
  5  6  1  0
  6  7  2  0
  7  8  1  0
  8  9  2  0
  9  1  1  0
  9  4  1  0
 13 15  1  0
  3 10  1  0
M  CHG 1  13   1
M  END
> <minimizedAffinity>
-4.46497

> <CNNscore>
0.5874492526

> <CNNaffinity>
5.6618771553

> <CNN_VS>
3.3260655403

> <CNNaffinity_variance>
1.0737941265

$$$$
MET_like


 17 18  0  0  0  0  0  0  0  0999 V2000
   18.9671   11.1422   41.8922 C   0  0  0  0  0  0  0  0  0  0  0  0
   18.5720   12.4561   42.0508 C   0  0  0  0  0  0  0  0  0  0  0  0
   18.2430   12.6510   43.3669 N   0  0  0  0  0  0  0  0  0  0  0  0
   18.4284   11.4887   44.0775 C   0  0  0  0  0  0  0  0  0  0  0  0
   18.2295   11.2277   45.4381 C   0  0  0  0  0  0  0  0  0  0  0  0
   18.4888    9.9329   45.8943 C   0  0  0  0  0  0  0  0  0  0  0  0
   18.9260    8.9399   45.0220 C   0  0  0  0  0  0  0  0  0  0  0  0
   19.1203    9.2177   43.6636 C   0  0  0  0  0  0  0  0  0  0  0  0
   18.8705   10.5186   43.1783 C   0  0  0  0  0  0  0  0  0  0  0  0
   17.9077   13.5179   43.7672 H   0  0  0  0  0  0  0  0  0  0  0  0
   19.4185   10.5016   40.6224 C   0  0  0  0  0  0  0  0  0  0  0  0
   19.0770   11.3738   39.4110 C   0  0  0  0  0  0  0  0  0  0  0  0
   19.4503   10.7030   38.0956 N   0  0  0  0  0  0  0  0  0  0  0  0
   19.6223   11.7247   36.9989 C   0  0  0  0  0  0  0  0  0  0  0  0
   20.3898   10.3090   38.2407 H   0  0  0  0  0  0  0  0  0  0  0  0
   18.9517    8.9869   36.3075 C   0  0  0  0  0  0  0  0  0  0  0  0
   18.5867    9.5326   37.6751 C   0  0  0  0  0  0  0  0  0  0  0  0
 16 17  1  0
 17 13  1  0
 13 14  1  0
 13 12  1  0
 12 11  1  0
 11  1  1  0
  1  2  2  0
  2  3  1  0
  3  4  1  0
  4  5  2  0
  5  6  1  0
  6  7  2  0
  7  8  1  0
  8  9  2  0
  9  1  1  0
  9  4  1  0
 13 15  1  0
  3 10  1  0
M  CHG 1  13   1
M  END
> <minimizedAffinity>
-4.73134

> <CNNscore>
0.5446451902

> <CNNaffinity>
4.8342018127

> <CNN_VS>
2.6329247952

> <CNNaffinity_variance>
0.1713692397

$$$$
MET_like


 17 18  0  0  0  0  0  0  0  0999 V2000
   18.7960   10.0868   45.2488 C   0  0  0  0  0  0  0  0  0  0  0  0
   19.2612    8.9134   44.6882 C   0  0  0  0  0  0  0  0  0  0  0  0
   19.3930    9.1041   43.3375 N   0  0  0  0  0  0  0  0  0  0  0  0
   19.0342   10.3887   43.0042 C   0  0  0  0  0  0  0  0  0  0  0  0
   19.0206   11.0212   41.7557 C   0  0  0  0  0  0  0  0  0  0  0  0
   18.5906   12.3495   41.7067 C   0  0  0  0  0  0  0  0  0  0  0  0
   18.1875   13.0153   42.8610 C   0  0  0  0  0  0  0  0  0  0  0  0
   18.2074   12.3681   44.1024 C   0  0  0  0  0  0  0  0  0  0  0  0
   18.6422   11.0283   44.1800 C   0  0  0  0  0  0  0  0  0  0  0  0
   19.7041    8.4073   42.6727 H   0  0  0  0  0  0  0  0  0  0  0  0
   18.5186   10.3268   46.6951 C   0  0  0  0  0  0  0  0  0  0  0  0
   19.6577    9.7990   47.5719 C   0  0  0  0  0  0  0  0  0  0  0  0
   19.1438    9.0222   48.7768 N   0  0  0  0  0  0  0  0  0  0  0  0
   18.9702    9.9297   49.9696 C   0  0  0  0  0  0  0  0  0  0  0  0
   18.1904    8.7237   48.5297 H   0  0  0  0  0  0  0  0  0  0  0  0
   20.6875    7.1998   47.9481 C   0  0  0  0  0  0  0  0  0  0  0  0
   19.8867    7.7470   49.1147 C   0  0  0  0  0  0  0  0  0  0  0  0
 16 17  1  0
 17 13  1  0
 13 14  1  0
 13 12  1  0
 12 11  1  0
 11  1  1  0
  1  2  2  0
  2  3  1  0
  3  4  1  0
  4  5  2  0
  5  6  1  0
  6  7  2  0
  7  8  1  0
  8  9  2  0
  9  1  1  0
  9  4  1  0
 13 15  1  0
  3 10  1  0
M  CHG 1  13   1
M  END
> <minimizedAffinity>
-4.49514

> <CNNscore>
0.5298268199

> <CNNaffinity>
5.6484313011

> <CNN_VS>
2.9926903248

> <CNNaffinity_variance>
0.8488532901

$$$$
MET_like


 17 18  0  0  0  0  0  0  0  0999 V2000
   18.6630   10.3811   44.6292 C   0  0  0  0  0  0  0  0  0  0  0  0
   19.1798    9.1841   44.1735 C   0  0  0  0  0  0  0  0  0  0  0  0
   19.4339    9.3075   42.8324 N   0  0  0  0  0  0  0  0  0  0  0  0
   19.1042   10.5713   42.4032 C   0  0  0  0  0  0  0  0  0  0  0  0
   19.2032   11.1401   41.1281 C   0  0  0  0  0  0  0  0  0  0  0  0
   18.7767   12.4614   40.9730 C   0  0  0  0  0  0  0  0  0  0  0  0
   18.2687   13.1816   42.0506 C   0  0  0  0  0  0  0  0  0  0  0  0
   18.1766   12.5979   43.3198 C   0  0  0  0  0  0  0  0  0  0  0  0
   18.6053   11.2666   43.5045 C   0  0  0  0  0  0  0  0  0  0  0  0
   19.8058    8.5803   42.2348 H   0  0  0  0  0  0  0  0  0  0  0  0
   18.2544   10.6917   46.0303 C   0  0  0  0  0  0  0  0  0  0  0  0
   19.2269   11.6771   46.6846 C   0  0  0  0  0  0  0  0  0  0  0  0
   18.5033   12.7779   47.4489 N   0  0  0  0  0  0  0  0  0  0  0  0
   18.6505   14.1065   46.7495 C   0  0  0  0  0  0  0  0  0  0  0  0
   17.5017   12.5519   47.3808 H   0  0  0  0  0  0  0  0  0  0  0  0
   18.8742   11.5016   49.5994 C   0  0  0  0  0  0  0  0  0  0  0  0
   18.7941   12.8618   48.9324 C   0  0  0  0  0  0  0  0  0  0  0  0
 16 17  1  0
 17 13  1  0
 13 14  1  0
 13 12  1  0
 12 11  1  0
 11  1  1  0
  1  2  2  0
  2  3  1  0
  3  4  1  0
  4  5  2  0
  5  6  1  0
  6  7  2  0
  7  8  1  0
  8  9  2  0
  9  1  1  0
  9  4  1  0
 13 15  1  0
  3 10  1  0
M  CHG 1  13   1
M  END
> <minimizedAffinity>
-4.25880

> <CNNscore>
0.5100245476

> <CNNaffinity>
4.9334368706

> <CNN_VS>
2.5161738396

> <CNNaffinity_variance>
0.1110068932

$$$$
MET_like


 17 18  0  0  0  0  0  0  0  0999 V2000
   17.7560   19.7806   42.0996 C   0  0  0  0  0  0  0  0  0  0  0  0
   18.7819   19.2845   41.3193 C   0  0  0  0  0  0  0  0  0  0  0  0
   18.7400   19.9133   40.1023 N   0  0  0  0  0  0  0  0  0  0  0  0
   17.7105   20.8241   40.0761 C   0  0  0  0  0  0  0  0  0  0  0  0
   17.3034   21.6886   39.0534 C   0  0  0  0  0  0  0  0  0  0  0  0
   16.1997   22.5092   39.2994 C   0  0  0  0  0  0  0  0  0  0  0  0
   15.5297   22.4625   40.5188 C   0  0  0  0  0  0  0  0  0  0  0  0
   15.9501   21.5920   41.5316 C   0  0  0  0  0  0  0  0  0  0  0  0
   17.0651   20.7564   41.3105 C   0  0  0  0  0  0  0  0  0  0  0  0
   19.3673   19.7379   39.3277 H   0  0  0  0  0  0  0  0  0  0  0  0
   17.4385   19.3809   43.5018 C   0  0  0  0  0  0  0  0  0  0  0  0
   17.9411   17.9656   43.8007 C   0  0  0  0  0  0  0  0  0  0  0  0
   16.8212   17.0432   44.2637 N   0  0  0  0  0  0  0  0  0  0  0  0
   16.9908   16.6762   45.7172 C   0  0  0  0  0  0  0  0  0  0  0  0
   15.9627   17.6097   44.2316 H   0  0  0  0  0  0  0  0  0  0  0  0
   17.1329   15.9721   41.9950 C   0  0  0  0  0  0  0  0  0  0  0  0
   16.5405   15.8422   43.3856 C   0  0  0  0  0  0  0  0  0  0  0  0
 16 17  1  0
 17 13  1  0
 13 14  1  0
 13 12  1  0
 12 11  1  0
 11  1  1  0
  1  2  2  0
  2  3  1  0
  3  4  1  0
  4  5  2  0
  5  6  1  0
  6  7  2  0
  7  8  1  0
  8  9  2  0
  9  1  1  0
  9  4  1  0
 13 15  1  0
  3 10  1  0
M  CHG 1  13   1
M  END
> <minimizedAffinity>
-3.98361

> <CNNscore>
0.5054859519

> <CNNaffinity>
4.5684094429

> <CNN_VS>
2.3092668056

> <CNNaffinity_variance>
0.5046224594

$$$$
MET_like


 17 18  0  0  0  0  0  0  0  0999 V2000
   19.0848    9.7107   43.6823 C   0  0  0  0  0  0  0  0  0  0  0  0
   19.5325    8.9237   42.6394 C   0  0  0  0  0  0  0  0  0  0  0  0
   19.5048    9.6727   41.4920 N   0  0  0  0  0  0  0  0  0  0  0  0
   19.0582   10.9434   41.7678 C   0  0  0  0  0  0  0  0  0  0  0  0
   18.8791   12.0367   40.9125 C   0  0  0  0  0  0  0  0  0  0  0  0
   18.3917   13.2219   41.4689 C   0  0  0  0  0  0  0  0  0  0  0  0
   18.0929   13.3066   42.8260 C   0  0  0  0  0  0  0  0  0  0  0  0
   18.2780   12.2035   43.6681 C   0  0  0  0  0  0  0  0  0  0  0  0
   18.7737   10.9963   43.1321 C   0  0  0  0  0  0  0  0  0  0  0  0
   19.7683    9.3473   40.5707 H   0  0  0  0  0  0  0  0  0  0  0  0
   18.9608    9.2988   45.1111 C   0  0  0  0  0  0  0  0  0  0  0  0
   20.2004    8.5281   45.5742 C   0  0  0  0  0  0  0  0  0  0  0  0
   20.3395    8.5196   47.0907 N   0  0  0  0  0  0  0  0  0  0  0  0
   20.7636    7.1591   47.5860 C   0  0  0  0  0  0  0  0  0  0  0  0
   21.1347    9.1381   47.3008 H   0  0  0  0  0  0  0  0  0  0  0  0
   19.0306    8.4814   49.2533 C   0  0  0  0  0  0  0  0  0  0  0  0
   19.1734    9.0892   47.8706 C   0  0  0  0  0  0  0  0  0  0  0  0
 16 17  1  0
 17 13  1  0
 13 14  1  0
 13 12  1  0
 12 11  1  0
 11  1  1  0
  1  2  2  0
  2  3  1  0
  3  4  1  0
  4  5  2  0
  5  6  1  0
  6  7  2  0
  7  8  1  0
  8  9  2  0
  9  1  1  0
  9  4  1  0
 13 15  1  0
  3 10  1  0
M  CHG 1  13   1
M  END
> <minimizedAffinity>
-4.69178

> <CNNscore>
0.4986651540

> <CNNaffinity>
5.0547866821

> <CNN_VS>
2.5206460953

> <CNNaffinity_variance>
0.3274373710

$$$$
MET_like


 17 18  0  0  0  0  0  0  0  0999 V2000
   18.4181   10.8516   45.6035 C   0  0  0  0  0  0  0  0  0  0  0  0
   18.7206    9.5831   46.0585 C   0  0  0  0  0  0  0  0  0  0  0  0
   19.1341    8.8299   44.9908 N   0  0  0  0  0  0  0  0  0  0  0  0
   19.1202    9.5880   43.8439 C   0  0  0  0  0  0  0  0  0  0  0  0
   19.4681    9.2393   42.5338 C   0  0  0  0  0  0  0  0  0  0  0  0
   19.3432   10.2205   41.5471 C   0  0  0  0  0  0  0  0  0  0  0  0
   18.8852   11.4973   41.8602 C   0  0  0  0  0  0  0  0  0  0  0  0
   18.5415   11.8300   43.1760 C   0  0  0  0  0  0  0  0  0  0  0  0
   18.6634   10.8588   44.1921 C   0  0  0  0  0  0  0  0  0  0  0  0
   19.4079    7.8564   45.0287 H   0  0  0  0  0  0  0  0  0  0  0  0
   17.9378   11.9968   46.4308 C   0  0  0  0  0  0  0  0  0  0  0  0
   19.0360   13.0489   46.6096 C   0  0  0  0  0  0  0  0  0  0  0  0
   18.6190   14.4125   46.0748 N   0  0  0  0  0  0  0  0  0  0  0  0
   19.6283   14.9344   45.0823 C   0  0  0  0  0  0  0  0  0  0  0  0
   17.7662   14.2464   45.5233 H   0  0  0  0  0  0  0  0  0  0  0  0
   19.1465   16.6535   47.1192 C   0  0  0  0  0  0  0  0  0  0  0  0
   18.2296   15.4449   47.1115 C   0  0  0  0  0  0  0  0  0  0  0  0
 16 17  1  0
 17 13  1  0
 13 14  1  0
 13 12  1  0
 12 11  1  0
 11  1  1  0
  1  2  2  0
  2  3  1  0
  3  4  1  0
  4  5  2  0
  5  6  1  0
  6  7  2  0
  7  8  1  0
  8  9  2  0
  9  1  1  0
  9  4  1  0
 13 15  1  0
  3 10  1  0
M  CHG 1  13   1
M  END
> <minimizedAffinity>
-4.12775

> <CNNscore>
0.4800865650

> <CNNaffinity>
4.8896584511

> <CNN_VS>
2.3474593163

> <CNNaffinity_variance>
0.1116808951

$$$$
MET_like


 17 18  0  0  0  0  0  0  0  0999 V2000
   18.5365   10.9548   46.0247 C   0  0  0  0  0  0  0  0  0  0  0  0
   18.8239    9.6092   46.1446 C   0  0  0  0  0  0  0  0  0  0  0  0
   19.0571    9.1054   44.8916 N   0  0  0  0  0  0  0  0  0  0  0  0
   18.9401   10.1022   43.9520 C   0  0  0  0  0  0  0  0  0  0  0  0
   19.0999   10.0486   42.5625 C   0  0  0  0  0  0  0  0  0  0  0  0
   18.9054   11.2294   41.8417 C   0  0  0  0  0  0  0  0  0  0  0  0
   18.5615   12.4142   42.4867 C   0  0  0  0  0  0  0  0  0  0  0  0
   18.4057   12.4509   43.8776 C   0  0  0  0  0  0  0  0  0  0  0  0
   18.6014   11.2733   44.6294 C   0  0  0  0  0  0  0  0  0  0  0  0
   19.2796    8.1416   44.6773 H   0  0  0  0  0  0  0  0  0  0  0  0
   18.2283   11.8962   47.1406 C   0  0  0  0  0  0  0  0  0  0  0  0
   18.9099   11.4564   48.4395 C   0  0  0  0  0  0  0  0  0  0  0  0
   18.6271   12.4132   49.5901 N   0  0  0  0  0  0  0  0  0  0  0  0
   18.3610   13.8076   49.0792 C   0  0  0  0  0  0  0  0  0  0  0  0
   17.7332   12.1043   49.9958 H   0  0  0  0  0  0  0  0  0  0  0  0
   19.6141   13.6692   51.5496 C   0  0  0  0  0  0  0  0  0  0  0  0
   19.6158   12.3884   50.7365 C   0  0  0  0  0  0  0  0  0  0  0  0
 16 17  1  0
 17 13  1  0
 13 14  1  0
 13 12  1  0
 12 11  1  0
 11  1  1  0
  1  2  2  0
  2  3  1  0
  3  4  1  0
  4  5  2  0
  5  6  1  0
  6  7  2  0
  7  8  1  0
  8  9  2  0
  9  1  1  0
  9  4  1  0
 13 15  1  0
  3 10  1  0
M  CHG 1  13   1
M  END
> <minimizedAffinity>
-4.16801

> <CNNscore>
0.4687259793

> <CNNaffinity>
5.1957449913

> <CNN_VS>
2.4353806973

> <CNNaffinity_variance>
0.2509768903

$$$$
MET_like


 17 18  0  0  0  0  0  0  0  0999 V2000
   18.1508   11.9588   44.6372 C   0  0  0  0  0  0  0  0  0  0  0  0
   17.7712   13.2840   44.5516 C   0  0  0  0  0  0  0  0  0  0  0  0
   17.9308   13.6947   43.2539 N   0  0  0  0  0  0  0  0  0  0  0  0
   18.3969   12.6559   42.4833 C   0  0  0  0  0  0  0  0  0  0  0  0
   18.6931   12.6158   41.1159 C   0  0  0  0  0  0  0  0  0  0  0  0
   19.1710   11.4124   40.5913 C   0  0  0  0  0  0  0  0  0  0  0  0
   19.3479   10.2963   41.4044 C   0  0  0  0  0  0  0  0  0  0  0  0
   19.0466   10.3531   42.7705 C   0  0  0  0  0  0  0  0  0  0  0  0
   18.5577   11.5550   43.3242 C   0  0  0  0  0  0  0  0  0  0  0  0
   17.7405   14.6250   42.9038 H   0  0  0  0  0  0  0  0  0  0  0  0
   18.1290   11.1100   45.8642 C   0  0  0  0  0  0  0  0  0  0  0  0
   18.2838   11.9607   47.1281 C   0  0  0  0  0  0  0  0  0  0  0  0
   19.5267   11.5866   47.9248 N   0  0  0  0  0  0  0  0  0  0  0  0
   19.3327   10.2735   48.6419 C   0  0  0  0  0  0  0  0  0  0  0  0
   20.2597   11.4017   47.2266 H   0  0  0  0  0  0  0  0  0  0  0  0
   19.4738   12.6717   50.2075 C   0  0  0  0  0  0  0  0  0  0  0  0
   20.0933   12.6660   48.8227 C   0  0  0  0  0  0  0  0  0  0  0  0
 16 17  1  0
 17 13  1  0
 13 14  1  0
 13 12  1  0
 12 11  1  0
 11  1  1  0
  1  2  2  0
  2  3  1  0
  3  4  1  0
  4  5  2  0
  5  6  1  0
  6  7  2  0
  7  8  1  0
  8  9  2  0
  9  1  1  0
  9  4  1  0
 13 15  1  0
  3 10  1  0
M  CHG 1  13   1
M  END
> <minimizedAffinity>
-4.10802

> <CNNscore>
0.4545224905

> <CNNaffinity>
4.9869866371

> <CNN_VS>
2.2666976452

> <CNNaffinity_variance>
0.1671777368

$$$$
MET_like


 17 18  0  0  0  0  0  0  0  0999 V2000
   17.7210   13.2929   43.5333 C   0  0  0  0  0  0  0  0  0  0  0  0
   18.2132   13.1086   42.2561 C   0  0  0  0  0  0  0  0  0  0  0  0
   18.7837   11.8642   42.1900 N   0  0  0  0  0  0  0  0  0  0  0  0
   18.6619   11.2235   43.4003 C   0  0  0  0  0  0  0  0  0  0  0  0
   19.0863    9.9467   43.7861 C   0  0  0  0  0  0  0  0  0  0  0  0
   18.8387    9.5520   45.1033 C   0  0  0  0  0  0  0  0  0  0  0  0
   18.1956   10.4033   45.9976 C   0  0  0  0  0  0  0  0  0  0  0  0
   17.7772   11.6774   45.5954 C   0  0  0  0  0  0  0  0  0  0  0  0
   18.0105   12.0984   44.2693 C   0  0  0  0  0  0  0  0  0  0  0  0
   19.2348   11.4665   41.3760 H   0  0  0  0  0  0  0  0  0  0  0  0
   17.0129   14.5039   44.0420 C   0  0  0  0  0  0  0  0  0  0  0  0
   17.9033   15.3054   44.9958 C   0  0  0  0  0  0  0  0  0  0  0  0
   17.5935   16.7960   44.9562 N   0  0  0  0  0  0  0  0  0  0  0  0
   16.1599   17.0595   45.3454 C   0  0  0  0  0  0  0  0  0  0  0  0
   18.1544   17.2171   45.7092 H   0  0  0  0  0  0  0  0  0  0  0  0
   17.4441   18.9376   43.6211 C   0  0  0  0  0  0  0  0  0  0  0  0
   18.0022   17.5289   43.6960 C   0  0  0  0  0  0  0  0  0  0  0  0
 16 17  1  0
 17 13  1  0
 13 14  1  0
 13 12  1  0
 12 11  1  0
 11  1  1  0
  1  2  2  0
  2  3  1  0
  3  4  1  0
  4  5  2  0
  5  6  1  0
  6  7  2  0
  7  8  1  0
  8  9  2  0
  9  1  1  0
  9  4  1  0
 13 15  1  0
  3 10  1  0
M  CHG 1  13   1
M  END
> <minimizedAffinity>
-4.72645

> <CNNscore>
0.4519355893

> <CNNaffinity>
4.7763633728

> <CNN_VS>
2.1586086750

> <CNNaffinity_variance>
0.0709977522

$$$$
MET_like


 16 17  0  0  0  0  0  0  0  0999 V2000
   17.7472   15.1430   43.3285 C   0  0  0  0  0  0  0  0  0  0  0  0
   18.6414   15.6551   42.4080 C   0  0  0  0  0  0  0  0  0  0  0  0
   18.6669   17.0168   42.5447 N   0  0  0  0  0  0  0  0  0  0  0  0
   17.8027   17.4126   43.5381 C   0  0  0  0  0  0  0  0  0  0  0  0
   17.5041   18.6941   44.0169 C   0  0  0  0  0  0  0  0  0  0  0  0
   16.5709   18.7976   45.0526 C   0  0  0  0  0  0  0  0  0  0  0  0
   15.9630   17.6639   45.5863 C   0  0  0  0  0  0  0  0  0  0  0  0
   16.2737   16.3905   45.0957 C   0  0  0  0  0  0  0  0  0  0  0  0
   17.2117   16.2578   44.0511 C   0  0  0  0  0  0  0  0  0  0  0  0
   19.2368   17.6471   41.9983 H   0  0  0  0  0  0  0  0  0  0  0  0
   17.4057   13.6968   43.5285 C   0  0  0  0  0  0  0  0  0  0  0  0
   18.6569   12.8366   43.7806 C   0  0  0  0  0  0  0  0  0  0  0  0
   18.4646   11.3965   43.5231 N   0  0  0  0  0  0  0  0  0  0  0  0
   18.9699   11.0475   42.1945 C   0  0  0  0  0  0  0  0  0  0  0  0
   18.2487   10.4707   45.8885 C   0  0  0  0  0  0  0  0  0  0  0  0
   19.0027   10.5076   44.5623 C   0  0  0  0  0  0  0  0  0  0  0  0
 15 16  1  0
 16 13  1  0
 13 14  1  0
 13 12  1  0
 12 11  1  0
 11  1  1  0
  1  2  2  0
  2  3  1  0
  3  4  1  0
  4  5  2  0
  5  6  1  0
  6  7  2  0
  7  8  1  0
  8  9  2  0
  9  1  1  0
  9  4  1  0
  3 10  1  0
M  END
> <minimizedAffinity>
-4.24846

> <CNNscore>
0.8054567575

> <CNNaffinity>
5.3268866539

> <CNN_VS>
4.2905769348

> <CNNaffinity_variance>
2.0362246037

$$$$
MET_like


 16 17  0  0  0  0  0  0  0  0999 V2000
   19.1768   10.3623   39.3487 C   0  0  0  0  0  0  0  0  0  0  0  0
   19.0415    8.9878   39.3894 C   0  0  0  0  0  0  0  0  0  0  0  0
   19.1901    8.5032   38.1179 N   0  0  0  0  0  0  0  0  0  0  0  0
   19.4185    9.5347   37.2381 C   0  0  0  0  0  0  0  0  0  0  0  0
   19.6245    9.5109   35.8533 C   0  0  0  0  0  0  0  0  0  0  0  0
   19.8363   10.7331   35.2087 C   0  0  0  0  0  0  0  0  0  0  0  0
   19.8416   11.9290   35.9224 C   0  0  0  0  0  0  0  0  0  0  0  0
   19.6343   11.9342   37.3066 C   0  0  0  0  0  0  0  0  0  0  0  0
   19.4181   10.7151   37.9816 C   0  0  0  0  0  0  0  0  0  0  0  0
   19.1409    7.5288   37.8560 H   0  0  0  0  0  0  0  0  0  0  0  0
   19.0868   11.3006   40.5147 C   0  0  0  0  0  0  0  0  0  0  0  0
   19.1379   10.5565   41.8611 C   0  0  0  0  0  0  0  0  0  0  0  0
   18.7079   11.3656   43.0177 N   0  0  0  0  0  0  0  0  0  0  0  0
   19.7369   11.3487   44.0584 C   0  0  0  0  0  0  0  0  0  0  0  0
   17.5019   13.4847   43.7619 C   0  0  0  0  0  0  0  0  0  0  0  0
   18.2865   12.7345   42.6893 C   0  0  0  0  0  0  0  0  0  0  0  0
 15 16  1  0
 16 13  1  0
 13 14  1  0
 13 12  1  0
 12 11  1  0
 11  1  1  0
  1  2  2  0
  2  3  1  0
  3  4  1  0
  4  5  2  0
  5  6  1  0
  6  7  2  0
  7  8  1  0
  8  9  2  0
  9  1  1  0
  9  4  1  0
  3 10  1  0
M  END
> <minimizedAffinity>
-4.15903

> <CNNscore>
0.7396032214

> <CNNaffinity>
4.7886524200

> <CNN_VS>
3.5417027473

> <CNNaffinity_variance>
0.1675131321

$$$$
MET_like


 16 17  0  0  0  0  0  0  0  0999 V2000
   18.7461   13.5267   46.1278 C   0  0  0  0  0  0  0  0  0  0  0  0
   19.2124   14.1524   47.2680 C   0  0  0  0  0  0  0  0  0  0  0  0
   18.6840   15.4143   47.3128 N   0  0  0  0  0  0  0  0  0  0  0  0
   17.8788   15.6331   46.2201 C   0  0  0  0  0  0  0  0  0  0  0  0
   17.1429   16.7667   45.8537 C   0  0  0  0  0  0  0  0  0  0  0  0
   16.4016   16.7033   44.6702 C   0  0  0  0  0  0  0  0  0  0  0  0
   16.3979   15.5517   43.8870 C   0  0  0  0  0  0  0  0  0  0  0  0
   17.1391   14.4274   44.2686 C   0  0  0  0  0  0  0  0  0  0  0  0
   17.8958   14.4648   45.4580 C   0  0  0  0  0  0  0  0  0  0  0  0
   18.8557   16.0928   48.0413 H   0  0  0  0  0  0  0  0  0  0  0  0
   19.0713   12.1328   45.6810 C   0  0  0  0  0  0  0  0  0  0  0  0
   17.9183   11.1522   45.9602 C   0  0  0  0  0  0  0  0  0  0  0  0
   18.3085    9.7298   45.9179 N   0  0  0  0  0  0  0  0  0  0  0  0
   19.0169    9.4357   44.6714 C   0  0  0  0  0  0  0  0  0  0  0  0
   20.1676    8.2478   46.8379 C   0  0  0  0  0  0  0  0  0  0  0  0
   19.0550    9.2605   47.0935 C   0  0  0  0  0  0  0  0  0  0  0  0
 15 16  1  0
 16 13  1  0
 13 14  1  0
 13 12  1  0
 12 11  1  0
 11  1  1  0
  1  2  2  0
  2  3  1  0
  3  4  1  0
  4  5  2  0
  5  6  1  0
  6  7  2  0
  7  8  1  0
  8  9  2  0
  9  1  1  0
  9  4  1  0
  3 10  1  0
M  END
> <minimizedAffinity>
-4.01766

> <CNNscore>
0.6916674972

> <CNNaffinity>
5.8952469826

> <CNN_VS>
4.0775508881

> <CNNaffinity_variance>
5.1919631958

$$$$
MET_like


 16 17  0  0  0  0  0  0  0  0999 V2000
   19.0395   11.3576   40.8005 C   0  0  0  0  0  0  0  0  0  0  0  0
   19.2924   10.3947   41.7586 C   0  0  0  0  0  0  0  0  0  0  0  0
   19.4080    9.1836   41.1313 N   0  0  0  0  0  0  0  0  0  0  0  0
   19.2331    9.3303   39.7755 C   0  0  0  0  0  0  0  0  0  0  0  0
   19.2631    8.3742   38.7529 C   0  0  0  0  0  0  0  0  0  0  0  0
   19.0493    8.8179   37.4446 C   0  0  0  0  0  0  0  0  0  0  0  0
   18.8157   10.1637   37.1728 C   0  0  0  0  0  0  0  0  0  0  0  0
   18.7896   11.1060   38.2074 C   0  0  0  0  0  0  0  0  0  0  0  0
   19.0020   10.6851   39.5364 C   0  0  0  0  0  0  0  0  0  0  0  0
   19.5955    8.3042   41.5916 H   0  0  0  0  0  0  0  0  0  0  0  0
   18.8421   12.8241   41.0426 C   0  0  0  0  0  0  0  0  0  0  0  0
   18.9880   13.1894   42.5307 C   0  0  0  0  0  0  0  0  0  0  0  0
   17.7247   13.5794   43.1859 N   0  0  0  0  0  0  0  0  0  0  0  0
   17.6628   13.0231   44.5383 C   0  0  0  0  0  0  0  0  0  0  0  0
   16.2633   15.4959   44.0168 C   0  0  0  0  0  0  0  0  0  0  0  0
   17.4455   15.0221   43.1761 C   0  0  0  0  0  0  0  0  0  0  0  0
 15 16  1  0
 16 13  1  0
 13 14  1  0
 13 12  1  0
 12 11  1  0
 11  1  1  0
  1  2  2  0
  2  3  1  0
  3  4  1  0
  4  5  2  0
  5  6  1  0
  6  7  2  0
  7  8  1  0
  8  9  2  0
  9  1  1  0
  9  4  1  0
  3 10  1  0
M  END
> <minimizedAffinity>
-4.23893

> <CNNscore>
0.6902057528

> <CNNaffinity>
4.7284369469

> <CNN_VS>
3.2635943890

> <CNNaffinity_variance>
0.0118577899

$$$$
MET_like


 16 17  0  0  0  0  0  0  0  0999 V2000
   18.4991   12.1612   42.5386 C   0  0  0  0  0  0  0  0  0  0  0  0
   17.9541   13.2946   43.1111 C   0  0  0  0  0  0  0  0  0  0  0  0
   17.7210   13.0380   44.4353 N   0  0  0  0  0  0  0  0  0  0  0  0
   18.1004   11.7535   44.7461 C   0  0  0  0  0  0  0  0  0  0  0  0
   18.0440   11.0655   45.9643 C   0  0  0  0  0  0  0  0  0  0  0  0
   18.5079    9.7470   45.9859 C   0  0  0  0  0  0  0  0  0  0  0  0
   19.0078    9.1436   44.8345 C   0  0  0  0  0  0  0  0  0  0  0  0
   19.0571    9.8464   43.6251 C   0  0  0  0  0  0  0  0  0  0  0  0
   18.5953   11.1779   43.5757 C   0  0  0  0  0  0  0  0  0  0  0  0
   17.3276   13.6934   45.0957 H   0  0  0  0  0  0  0  0  0  0  0  0
   18.9090   11.9968   41.1058 C   0  0  0  0  0  0  0  0  0  0  0  0
   19.3811   10.5641   40.8000 C   0  0  0  0  0  0  0  0  0  0  0  0
   18.7994    9.9826   39.5750 N   0  0  0  0  0  0  0  0  0  0  0  0
   19.2409   10.7334   38.3987 C   0  0  0  0  0  0  0  0  0  0  0  0
   19.4714    7.7731   40.6546 C   0  0  0  0  0  0  0  0  0  0  0  0
   19.0188    8.5384   39.4144 C   0  0  0  0  0  0  0  0  0  0  0  0
 15 16  1  0
 16 13  1  0
 13 14  1  0
 13 12  1  0
 12 11  1  0
 11  1  1  0
  1  2  2  0
  2  3  1  0
  3  4  1  0
  4  5  2  0
  5  6  1  0
  6  7  2  0
  7  8  1  0
  8  9  2  0
  9  1  1  0
  9  4  1  0
  3 10  1  0
M  END
> <minimizedAffinity>
-5.04851

> <CNNscore>
0.6407570243

> <CNNaffinity>
3.9066240788

> <CNN_VS>
2.5031967163

> <CNNaffinity_variance>
0.7350861430

$$$$
MET_like


 16 17  0  0  0  0  0  0  0  0999 V2000
   19.1611    9.3951   45.4215 C   0  0  0  0  0  0  0  0  0  0  0  0
   18.4336   10.3698   46.0770 C   0  0  0  0  0  0  0  0  0  0  0  0
   18.5324   10.1473   47.4240 N   0  0  0  0  0  0  0  0  0  0  0  0
   19.3108    9.0407   47.6687 C   0  0  0  0  0  0  0  0  0  0  0  0
   19.6785    8.4462   48.8820 C   0  0  0  0  0  0  0  0  0  0  0  0
   20.4925    7.3111   48.8268 C   0  0  0  0  0  0  0  0  0  0  0  0
   20.9202    6.7937   47.6065 C   0  0  0  0  0  0  0  0  0  0  0  0
   20.5433    7.4011   46.4032 C   0  0  0  0  0  0  0  0  0  0  0  0
   19.7225    8.5474   46.4304 C   0  0  0  0  0  0  0  0  0  0  0  0
   18.0991   10.7113   48.1414 H   0  0  0  0  0  0  0  0  0  0  0  0
   19.3277    9.2553   43.9379 C   0  0  0  0  0  0  0  0  0  0  0  0
   19.3988   10.6215   43.2326 C   0  0  0  0  0  0  0  0  0  0  0  0
   18.8924   10.6155   41.8467 N   0  0  0  0  0  0  0  0  0  0  0  0
   18.8459   11.9797   41.3185 C   0  0  0  0  0  0  0  0  0  0  0  0
   19.2439    9.8029   39.4561 C   0  0  0  0  0  0  0  0  0  0  0  0
   19.5978    9.7020   40.9371 C   0  0  0  0  0  0  0  0  0  0  0  0
 15 16  1  0
 16 13  1  0
 13 14  1  0
 13 12  1  0
 12 11  1  0
 11  1  1  0
  1  2  2  0
  2  3  1  0
  3  4  1  0
  4  5  2  0
  5  6  1  0
  6  7  2  0
  7  8  1  0
  8  9  2  0
  9  1  1  0
  9  4  1  0
  3 10  1  0
M  END
> <minimizedAffinity>
-4.09227

> <CNNscore>
0.6362454295

> <CNNaffinity>
4.5456643105

> <CNN_VS>
2.8921580315

> <CNNaffinity_variance>
0.0198650714

$$$$
MET_like


 16 17  0  0  0  0  0  0  0  0999 V2000
   18.4625   11.0358   45.2731 C   0  0  0  0  0  0  0  0  0  0  0  0
   18.0470   12.3279   45.0138 C   0  0  0  0  0  0  0  0  0  0  0  0
   18.1674   12.5569   43.6697 N   0  0  0  0  0  0  0  0  0  0  0  0
   18.6579   11.4388   43.0376 C   0  0  0  0  0  0  0  0  0  0  0  0
   18.9410   11.2184   41.6841 C   0  0  0  0  0  0  0  0  0  0  0  0
   19.4379    9.9629   41.3222 C   0  0  0  0  0  0  0  0  0  0  0  0
   19.6423    8.9699   42.2771 C   0  0  0  0  0  0  0  0  0  0  0  0
   19.3535    9.2075   43.6259 C   0  0  0  0  0  0  0  0  0  0  0  0
   18.8512   10.4654   44.0180 C   0  0  0  0  0  0  0  0  0  0  0  0
   17.9312   13.4206   43.2020 H   0  0  0  0  0  0  0  0  0  0  0  0
   18.4985   10.3643   46.6132 C   0  0  0  0  0  0  0  0  0  0  0  0
   19.7174   10.8000   47.4459 C   0  0  0  0  0  0  0  0  0  0  0  0
   19.3929   11.2157   48.8240 N   0  0  0  0  0  0  0  0  0  0  0  0
   18.4042   12.2948   48.8081 C   0  0  0  0  0  0  0  0  0  0  0  0
   19.9958    8.9874   49.9057 C   0  0  0  0  0  0  0  0  0  0  0  0
   18.9919   10.1215   49.7192 C   0  0  0  0  0  0  0  0  0  0  0  0
 15 16  1  0
 16 13  1  0
 13 14  1  0
 13 12  1  0
 12 11  1  0
 11  1  1  0
  1  2  2  0
  2  3  1  0
  3  4  1  0
  4  5  2  0
  5  6  1  0
  6  7  2  0
  7  8  1  0
  8  9  2  0
  9  1  1  0
  9  4  1  0
  3 10  1  0
M  END
> <minimizedAffinity>
-4.08795

> <CNNscore>
0.6300377846

> <CNNaffinity>
4.0016083717

> <CNN_VS>
2.5211644173

> <CNNaffinity_variance>
0.3410033286

$$$$
MET_like


 16 17  0  0  0  0  0  0  0  0999 V2000
   19.0188    9.8095   43.9297 C   0  0  0  0  0  0  0  0  0  0  0  0
   19.4788    8.9571   42.9444 C   0  0  0  0  0  0  0  0  0  0  0  0
   19.4845    9.6365   41.7561 N   0  0  0  0  0  0  0  0  0  0  0  0
   19.0335   10.9223   41.9398 C   0  0  0  0  0  0  0  0  0  0  0  0
   18.8702   11.9621   41.0163 C   0  0  0  0  0  0  0  0  0  0  0  0
   18.3859   13.1831   41.4945 C   0  0  0  0  0  0  0  0  0  0  0  0
   18.0785   13.3547   42.8420 C   0  0  0  0  0  0  0  0  0  0  0  0
   18.2483   12.3045   43.7514 C   0  0  0  0  0  0  0  0  0  0  0  0
   18.7352   11.0621   43.2954 C   0  0  0  0  0  0  0  0  0  0  0  0
   19.7773    9.2549   40.8678 H   0  0  0  0  0  0  0  0  0  0  0  0
   18.8500    9.4815   45.3830 C   0  0  0  0  0  0  0  0  0  0  0  0
   19.9098    8.4805   45.8769 C   0  0  0  0  0  0  0  0  0  0  0  0
   20.2487    8.6126   47.3069 N   0  0  0  0  0  0  0  0  0  0  0  0
   19.1631    9.2820   48.0250 C   0  0  0  0  0  0  0  0  0  0  0  0
   20.0813    7.1097   49.3593 C   0  0  0  0  0  0  0  0  0  0  0  0
   20.6465    7.3598   47.9640 C   0  0  0  0  0  0  0  0  0  0  0  0
 15 16  1  0
 16 13  1  0
 13 14  1  0
 13 12  1  0
 12 11  1  0
 11  1  1  0
  1  2  2  0
  2  3  1  0
  3  4  1  0
  4  5  2  0
  5  6  1  0
  6  7  2  0
  7  8  1  0
  8  9  2  0
  9  1  1  0
  9  4  1  0
  3 10  1  0
M  END
> <minimizedAffinity>
-4.70306

> <CNNscore>
0.6270985007

> <CNNaffinity>
4.3821358681

> <CNN_VS>
2.7480309010

> <CNNaffinity_variance>
0.1798003316

$$$$
MET_like


 16 17  0  0  0  0  0  0  0  0999 V2000
   22.4577    4.1069   54.3485 C   0  0  0  0  0  0  0  0  0  0  0  0
   23.1670    4.5533   55.4470 C   0  0  0  0  0  0  0  0  0  0  0  0
   22.6969    3.9029   56.5559 N   0  0  0  0  0  0  0  0  0  0  0  0
   21.6874    3.0366   56.2083 C   0  0  0  0  0  0  0  0  0  0  0  0
   20.9220    2.1764   57.0052 C   0  0  0  0  0  0  0  0  0  0  0  0
   19.9498    1.3983   56.3699 C   0  0  0  0  0  0  0  0  0  0  0  0
   19.7533    1.4789   54.9934 C   0  0  0  0  0  0  0  0  0  0  0  0
   20.5279    2.3441   54.2121 C   0  0  0  0  0  0  0  0  0  0  0  0
   21.5156    3.1403   54.8278 C   0  0  0  0  0  0  0  0  0  0  0  0
   23.0381    4.0347   57.4975 H   0  0  0  0  0  0  0  0  0  0  0  0
   22.6422    4.5523   52.9287 C   0  0  0  0  0  0  0  0  0  0  0  0
   23.0406    6.0361   52.8352 C   0  0  0  0  0  0  0  0  0  0  0  0
   21.9032    6.9594   52.6590 N   0  0  0  0  0  0  0  0  0  0  0  0
   21.7199    7.7726   53.8620 C   0  0  0  0  0  0  0  0  0  0  0  0
   21.0016    7.4182   50.3190 C   0  0  0  0  0  0  0  0  0  0  0  0
   21.9631    7.7860   51.4455 C   0  0  0  0  0  0  0  0  0  0  0  0
 15 16  1  0
 16 13  1  0
 13 14  1  0
 13 12  1  0
 12 11  1  0
 11  1  1  0
  1  2  2  0
  2  3  1  0
  3  4  1  0
  4  5  2  0
  5  6  1  0
  6  7  2  0
  7  8  1  0
  8  9  2  0
  9  1  1  0
  9  4  1  0
  3 10  1  0
M  END
> <minimizedAffinity>
-3.99138

> <CNNscore>
0.6219608188

> <CNNaffinity>
4.6662960052

> <CNN_VS>
2.9022533894

> <CNNaffinity_variance>
0.2824511230

$$$$
MET_like


 16 17  0  0  0  0  0  0  0  0999 V2000
   18.5821   10.2103   45.7393 C   0  0  0  0  0  0  0  0  0  0  0  0
   19.0595    9.8134   44.5049 C   0  0  0  0  0  0  0  0  0  0  0  0
   19.8752    8.7295   44.6875 N   0  0  0  0  0  0  0  0  0  0  0  0
   19.9466    8.4057   46.0218 C   0  0  0  0  0  0  0  0  0  0  0  0
   20.6546    7.3837   46.6660 C   0  0  0  0  0  0  0  0  0  0  0  0
   20.5374    7.2910   48.0559 C   0  0  0  0  0  0  0  0  0  0  0  0
   19.7435    8.1850   48.7701 C   0  0  0  0  0  0  0  0  0  0  0  0
   19.0422    9.2005   48.1097 C   0  0  0  0  0  0  0  0  0  0  0  0
   19.1430    9.3165   46.7080 C   0  0  0  0  0  0  0  0  0  0  0  0
   20.3584    8.2330   43.9523 H   0  0  0  0  0  0  0  0  0  0  0  0
   17.6553   11.3578   46.0084 C   0  0  0  0  0  0  0  0  0  0  0  0
   18.4184   12.6472   46.3610 C   0  0  0  0  0  0  0  0  0  0  0  0
   18.5049   13.6218   45.2566 N   0  0  0  0  0  0  0  0  0  0  0  0
   19.8423   13.5965   44.6622 C   0  0  0  0  0  0  0  0  0  0  0  0
   16.6668   14.7588   43.9046 C   0  0  0  0  0  0  0  0  0  0  0  0
   17.4530   13.4941   44.2384 C   0  0  0  0  0  0  0  0  0  0  0  0
 15 16  1  0
 16 13  1  0
 13 14  1  0
 13 12  1  0
 12 11  1  0
 11  1  1  0
  1  2  2  0
  2  3  1  0
  3  4  1  0
  4  5  2  0
  5  6  1  0
  6  7  2  0
  7  8  1  0
  8  9  2  0
  9  1  1  0
  9  4  1  0
  3 10  1  0
M  END
> <minimizedAffinity>
-4.22736

> <CNNscore>
0.6125770211

> <CNNaffinity>
4.7961602211

> <CNN_VS>
2.9380176067

> <CNNaffinity_variance>
0.4301311672

$$$$
MET_like


 16 17  0  0  0  0  0  0  0  0999 V2000
   17.0628   16.5627   44.1960 C   0  0  0  0  0  0  0  0  0  0  0  0
   17.2337   16.9317   45.5166 C   0  0  0  0  0  0  0  0  0  0  0  0
   17.7610   18.1945   45.5456 N   0  0  0  0  0  0  0  0  0  0  0  0
   17.9436   18.6645   44.2665 C   0  0  0  0  0  0  0  0  0  0  0  0
   18.4523   19.8900   43.8192 C   0  0  0  0  0  0  0  0  0  0  0  0
   18.5225   20.0972   42.4385 C   0  0  0  0  0  0  0  0  0  0  0  0
   18.1001   19.1172   41.5437 C   0  0  0  0  0  0  0  0  0  0  0  0
   17.5937   17.8979   42.0084 C   0  0  0  0  0  0  0  0  0  0  0  0
   17.5121   17.6630   43.3965 C   0  0  0  0  0  0  0  0  0  0  0  0
   17.9858   18.7134   46.3827 H   0  0  0  0  0  0  0  0  0  0  0  0
   16.5128   15.2591   43.7000 C   0  0  0  0  0  0  0  0  0  0  0  0
   17.3297   14.0567   44.2058 C   0  0  0  0  0  0  0  0  0  0  0  0
   17.7718   13.1337   43.1429 N   0  0  0  0  0  0  0  0  0  0  0  0
   18.2443   13.8882   41.9811 C   0  0  0  0  0  0  0  0  0  0  0  0
   18.8516   10.8643   42.7152 C   0  0  0  0  0  0  0  0  0  0  0  0
   18.7490   12.1233   43.5715 C   0  0  0  0  0  0  0  0  0  0  0  0
 15 16  1  0
 16 13  1  0
 13 14  1  0
 13 12  1  0
 12 11  1  0
 11  1  1  0
  1  2  2  0
  2  3  1  0
  3  4  1  0
  4  5  2  0
  5  6  1  0
  6  7  2  0
  7  8  1  0
  8  9  2  0
  9  1  1  0
  9  4  1  0
  3 10  1  0
M  END
> <minimizedAffinity>
-4.08081

> <CNNscore>
0.5978041291

> <CNNaffinity>
4.9069275856

> <CNN_VS>
2.9333815575

> <CNNaffinity_variance>
0.8167130351

$$$$
MET_like


 16 17  0  0  0  0  0  0  0  0999 V2000
   18.5658   12.0290   42.9829 C   0  0  0  0  0  0  0  0  0  0  0  0
   19.1853   12.0283   41.7479 C   0  0  0  0  0  0  0  0  0  0  0  0
   18.9223   13.2232   41.1340 N   0  0  0  0  0  0  0  0  0  0  0  0
   18.1374   14.0116   41.9419 C   0  0  0  0  0  0  0  0  0  0  0  0
   17.6272   15.2977   41.7269 C   0  0  0  0  0  0  0  0  0  0  0  0
   16.8474   15.8631   42.7401 C   0  0  0  0  0  0  0  0  0  0  0  0
   16.5903   15.1684   43.9195 C   0  0  0  0  0  0  0  0  0  0  0  0
   17.1088   13.8836   44.1177 C   0  0  0  0  0  0  0  0  0  0  0  0
   17.8985   13.2899   43.1115 C   0  0  0  0  0  0  0  0  0  0  0  0
   19.2543   13.4942   40.2193 H   0  0  0  0  0  0  0  0  0  0  0  0
   18.5898   10.9198   43.9915 C   0  0  0  0  0  0  0  0  0  0  0  0
   19.7448   11.0769   44.9966 C   0  0  0  0  0  0  0  0  0  0  0  0
   19.3738   10.7918   46.3960 N   0  0  0  0  0  0  0  0  0  0  0  0
   18.3826   11.7614   46.8648 C   0  0  0  0  0  0  0  0  0  0  0  0
   19.8977    8.3049   46.1965 C   0  0  0  0  0  0  0  0  0  0  0  0
   18.9471    9.4089   46.6507 C   0  0  0  0  0  0  0  0  0  0  0  0
 15 16  1  0
 16 13  1  0
 13 14  1  0
 13 12  1  0
 12 11  1  0
 11  1  1  0
  1  2  2  0
  2  3  1  0
  3  4  1  0
  4  5  2  0
  5  6  1  0
  6  7  2  0
  7  8  1  0
  8  9  2  0
  9  1  1  0
  9  4  1  0
  3 10  1  0
M  END
> <minimizedAffinity>
-4.30604

> <CNNscore>
0.5633565784

> <CNNaffinity>
4.6378502846

> <CNN_VS>
2.6127634048

> <CNNaffinity_variance>
0.2735196650

$$$$
MET_like


 16 17  0  0  0  0  0  0  0  0999 V2000
   18.5468   12.5889   41.9689 C   0  0  0  0  0  0  0  0  0  0  0  0
   18.5621   11.8424   43.1315 C   0  0  0  0  0  0  0  0  0  0  0  0
   17.9972   12.5894   44.1298 N   0  0  0  0  0  0  0  0  0  0  0  0
   17.6116   13.8175   43.6465 C   0  0  0  0  0  0  0  0  0  0  0  0
   17.0002   14.8937   44.3013 C   0  0  0  0  0  0  0  0  0  0  0  0
   16.7181   16.0357   43.5461 C   0  0  0  0  0  0  0  0  0  0  0  0
   17.0352   16.0963   42.1913 C   0  0  0  0  0  0  0  0  0  0  0  0
   17.6458   15.0108   41.5528 C   0  0  0  0  0  0  0  0  0  0  0  0
   17.9415   13.8465   42.2914 C   0  0  0  0  0  0  0  0  0  0  0  0
   17.8769   12.2882   45.0865 H   0  0  0  0  0  0  0  0  0  0  0  0
   19.0660   12.1607   40.6291 C   0  0  0  0  0  0  0  0  0  0  0  0
   19.3196   10.6439   40.5650 C   0  0  0  0  0  0  0  0  0  0  0  0
   18.7795    9.9894   39.3578 N   0  0  0  0  0  0  0  0  0  0  0  0
   19.3522   10.5944   38.1544 C   0  0  0  0  0  0  0  0  0  0  0  0
   19.4878    7.8756   40.5945 C   0  0  0  0  0  0  0  0  0  0  0  0
   18.9025    8.5251   39.3437 C   0  0  0  0  0  0  0  0  0  0  0  0
 15 16  1  0
 16 13  1  0
 13 14  1  0
 13 12  1  0
 12 11  1  0
 11  1  1  0
  1  2  2  0
  2  3  1  0
  3  4  1  0
  4  5  2  0
  5  6  1  0
  6  7  2  0
  7  8  1  0
  8  9  2  0
  9  1  1  0
  9  4  1  0
  3 10  1  0
M  END
> <minimizedAffinity>
-4.65085

> <CNNscore>
0.5529027581

> <CNNaffinity>
4.4421782494

> <CNN_VS>
2.4560925961

> <CNNaffinity_variance>
0.0714295805

$$$$
MET_like


 16 17  0  0  0  0  0  0  0  0999 V2000
   18.9595   10.9743   42.2474 C   0  0  0  0  0  0  0  0  0  0  0  0
   18.5324   12.2859   42.3282 C   0  0  0  0  0  0  0  0  0  0  0  0
   18.2002   12.5507   43.6294 N   0  0  0  0  0  0  0  0  0  0  0  0
   18.3982   11.4353   44.4085 C   0  0  0  0  0  0  0  0  0  0  0  0
   18.1922   11.2445   45.7803 C   0  0  0  0  0  0  0  0  0  0  0  0
   18.4847    9.9844   46.3103 C   0  0  0  0  0  0  0  0  0  0  0  0
   18.9639    8.9587   45.4991 C   0  0  0  0  0  0  0  0  0  0  0  0
   19.1642    9.1672   44.1297 C   0  0  0  0  0  0  0  0  0  0  0  0
   18.8770   10.4290   43.5694 C   0  0  0  0  0  0  0  0  0  0  0  0
   17.8586   13.4362   43.9752 H   0  0  0  0  0  0  0  0  0  0  0  0
   19.4195   10.2624   41.0106 C   0  0  0  0  0  0  0  0  0  0  0  0
   19.3790   11.1730   39.7703 C   0  0  0  0  0  0  0  0  0  0  0  0
   18.5861   10.6346   38.6485 N   0  0  0  0  0  0  0  0  0  0  0  0
   18.6381   11.5489   37.5067 C   0  0  0  0  0  0  0  0  0  0  0  0
   18.8758    8.9359   36.7698 C   0  0  0  0  0  0  0  0  0  0  0  0
   18.9231    9.2578   38.2607 C   0  0  0  0  0  0  0  0  0  0  0  0
 15 16  1  0
 16 13  1  0
 13 14  1  0
 13 12  1  0
 12 11  1  0
 11  1  1  0
  1  2  2  0
  2  3  1  0
  3  4  1  0
  4  5  2  0
  5  6  1  0
  6  7  2  0
  7  8  1  0
  8  9  2  0
  9  1  1  0
  9  4  1  0
  3 10  1  0
M  END
> <minimizedAffinity>
-4.97314

> <CNNscore>
0.5366758704

> <CNNaffinity>
4.1031436920

> <CNN_VS>
2.2020583153

> <CNNaffinity_variance>
0.1638953239

$$$$
MET_like


 16 17  0  0  0  0  0  0  0  0999 V2000
   18.5263   12.6088   42.4083 C   0  0  0  0  0  0  0  0  0  0  0  0
   18.5382   12.9422   41.0675 C   0  0  0  0  0  0  0  0  0  0  0  0
   18.8850   11.8290   40.3505 N   0  0  0  0  0  0  0  0  0  0  0  0
   19.1047   10.7669   41.1955 C   0  0  0  0  0  0  0  0  0  0  0  0
   19.4768    9.4477   40.9092 C   0  0  0  0  0  0  0  0  0  0  0  0
   19.6295    8.5694   41.9860 C   0  0  0  0  0  0  0  0  0  0  0  0
   19.4178    8.9956   43.2948 C   0  0  0  0  0  0  0  0  0  0  0  0
   19.0459   10.3180   43.5627 C   0  0  0  0  0  0  0  0  0  0  0  0
   18.8850   11.2248   42.4948 C   0  0  0  0  0  0  0  0  0  0  0  0
   18.9688   11.7860   39.3447 H   0  0  0  0  0  0  0  0  0  0  0  0
   18.2003   13.5240   43.5503 C   0  0  0  0  0  0  0  0  0  0  0  0
   17.6761   12.7550   44.7763 C   0  0  0  0  0  0  0  0  0  0  0  0
   18.5381   12.8564   45.9696 N   0  0  0  0  0  0  0  0  0  0  0  0
   18.6016   14.2435   46.4323 C   0  0  0  0  0  0  0  0  0  0  0  0
   19.0943   10.7148   47.2357 C   0  0  0  0  0  0  0  0  0  0  0  0
   18.1925   11.9331   47.0594 C   0  0  0  0  0  0  0  0  0  0  0  0
 15 16  1  0
 16 13  1  0
 13 14  1  0
 13 12  1  0
 12 11  1  0
 11  1  1  0
  1  2  2  0
  2  3  1  0
  3  4  1  0
  4  5  2  0
  5  6  1  0
  6  7  2  0
  7  8  1  0
  8  9  2  0
  9  1  1  0
  9  4  1  0
  3 10  1  0
M  END
> <minimizedAffinity>
-4.22144

> <CNNscore>
0.5352532864

> <CNNaffinity>
4.0544734001

> <CNN_VS>
2.1701703072

> <CNNaffinity_variance>
0.1512781978

$$$$
MET_like


 16 17  0  0  0  0  0  0  0  0999 V2000
   18.4770   10.7011   45.2333 C   0  0  0  0  0  0  0  0  0  0  0  0
   18.0016   11.8156   45.8975 C   0  0  0  0  0  0  0  0  0  0  0  0
   17.8519   12.8273   44.9877 N   0  0  0  0  0  0  0  0  0  0  0  0
   18.2229   12.4004   43.7346 C   0  0  0  0  0  0  0  0  0  0  0  0
   18.2367   13.0872   42.5144 C   0  0  0  0  0  0  0  0  0  0  0  0
   18.6690   12.3894   41.3829 C   0  0  0  0  0  0  0  0  0  0  0  0
   19.0704   11.0587   41.4708 C   0  0  0  0  0  0  0  0  0  0  0  0
   19.0499   10.3874   42.6988 C   0  0  0  0  0  0  0  0  0  0  0  0
   18.6182   11.0681   43.8559 C   0  0  0  0  0  0  0  0  0  0  0  0
   17.5170   13.7566   45.1991 H   0  0  0  0  0  0  0  0  0  0  0  0
   18.7850    9.3660   45.8420 C   0  0  0  0  0  0  0  0  0  0  0  0
   20.2695    9.2344   46.2269 C   0  0  0  0  0  0  0  0  0  0  0  0
   20.5261    9.2845   47.6790 N   0  0  0  0  0  0  0  0  0  0  0  0
   20.9276   10.6348   48.0762 C   0  0  0  0  0  0  0  0  0  0  0  0
   19.7297    7.5239   49.3419 C   0  0  0  0  0  0  0  0  0  0  0  0
   19.4323    8.7721   48.5159 C   0  0  0  0  0  0  0  0  0  0  0  0
 15 16  1  0
 16 13  1  0
 13 14  1  0
 13 12  1  0
 12 11  1  0
 11  1  1  0
  1  2  2  0
  2  3  1  0
  3  4  1  0
  4  5  2  0
  5  6  1  0
  6  7  2  0
  7  8  1  0
  8  9  2  0
  9  1  1  0
  9  4  1  0
  3 10  1  0
M  END
> <minimizedAffinity>
-4.48706

> <CNNscore>
0.4802082181

> <CNNaffinity>
4.3375773430

> <CNN_VS>
2.0829403400

> <CNNaffinity_variance>
0.2728360891

$$$$
MET_like


 16 17  0  0  0  0  0  0  0  0999 V2000
   19.1398   10.6827   41.6498 C   0  0  0  0  0  0  0  0  0  0  0  0
   19.3563    9.6413   42.5317 C   0  0  0  0  0  0  0  0  0  0  0  0
   19.0189   10.0650   43.7888 N   0  0  0  0  0  0  0  0  0  0  0  0
   18.5857   11.3694   43.7520 C   0  0  0  0  0  0  0  0  0  0  0  0
   18.1466   12.2040   44.7870 C   0  0  0  0  0  0  0  0  0  0  0  0
   17.7596   13.5045   44.4506 C   0  0  0  0  0  0  0  0  0  0  0  0
   17.8104   13.9495   43.1319 C   0  0  0  0  0  0  0  0  0  0  0  0
   18.2517   13.1014   42.1097 C   0  0  0  0  0  0  0  0  0  0  0  0
   18.6481   11.7845   42.4217 C   0  0  0  0  0  0  0  0  0  0  0  0
   19.0765    9.5053   44.6277 H   0  0  0  0  0  0  0  0  0  0  0  0
   19.3764   10.6593   40.1694 C   0  0  0  0  0  0  0  0  0  0  0  0
   19.0730    9.2802   39.5569 C   0  0  0  0  0  0  0  0  0  0  0  0
   18.4794    9.3335   38.2071 N   0  0  0  0  0  0  0  0  0  0  0  0
   18.5568   10.6940   37.6731 C   0  0  0  0  0  0  0  0  0  0  0  0
   18.9319    8.7027   35.7789 C   0  0  0  0  0  0  0  0  0  0  0  0
   19.0127    8.3445   37.2601 C   0  0  0  0  0  0  0  0  0  0  0  0
 15 16  1  0
 16 13  1  0
 13 14  1  0
 13 12  1  0
 12 11  1  0
 11  1  1  0
  1  2  2  0
  2  3  1  0
  3  4  1  0
  4  5  2  0
  5  6  1  0
  6  7  2  0
  7  8  1  0
  8  9  2  0
  9  1  1  0
  9  4  1  0
  3 10  1  0
M  END
> <minimizedAffinity>
-4.77649

> <CNNscore>
0.4798728228

> <CNNaffinity>
4.1902890205

> <CNN_VS>
2.0108058453

> <CNNaffinity_variance>
0.3099822998

$$$$
MET_like


 16 17  0  0  0  0  0  0  0  0999 V2000
   17.9669   12.8428   43.4162 C   0  0  0  0  0  0  0  0  0  0  0  0
   18.4880   12.5669   42.1666 C   0  0  0  0  0  0  0  0  0  0  0  0
   19.0163   11.3044   42.1900 N   0  0  0  0  0  0  0  0  0  0  0  0
   18.8551   10.7431   43.4348 C   0  0  0  0  0  0  0  0  0  0  0  0
   19.2379    9.4841   43.9136 C   0  0  0  0  0  0  0  0  0  0  0  0
   18.9387    9.1788   45.2445 C   0  0  0  0  0  0  0  0  0  0  0  0
   18.2830   10.0968   46.0611 C   0  0  0  0  0  0  0  0  0  0  0  0
   17.9072   11.3507   45.5657 C   0  0  0  0  0  0  0  0  0  0  0  0
   18.1971   11.6844   44.2266 C   0  0  0  0  0  0  0  0  0  0  0  0
   19.4615   10.8441   41.4088 H   0  0  0  0  0  0  0  0  0  0  0  0
   17.2916   14.1131   43.8384 C   0  0  0  0  0  0  0  0  0  0  0  0
   18.1845   14.9648   44.7585 C   0  0  0  0  0  0  0  0  0  0  0  0
   17.4423   15.8849   45.6414 N   0  0  0  0  0  0  0  0  0  0  0  0
   18.2994   16.3353   46.7391 C   0  0  0  0  0  0  0  0  0  0  0  0
   15.7177   17.7602   45.7304 C   0  0  0  0  0  0  0  0  0  0  0  0
   16.7982   17.0128   44.9541 C   0  0  0  0  0  0  0  0  0  0  0  0
 15 16  1  0
 16 13  1  0
 13 14  1  0
 13 12  1  0
 12 11  1  0
 11  1  1  0
  1  2  2  0
  2  3  1  0
  3  4  1  0
  4  5  2  0
  5  6  1  0
  6  7  2  0
  7  8  1  0
  8  9  2  0
  9  1  1  0
  9  4  1  0
  3 10  1  0
M  END
> <minimizedAffinity>
-4.91229

> <CNNscore>
0.4779763520

> <CNNaffinity>
4.1916108131

> <CNN_VS>
2.0034909248

> <CNNaffinity_variance>
0.1024777666

$$$$
MET_like


 16 17  0  0  0  0  0  0  0  0999 V2000
   13.4403   19.4113   47.1278 C   0  0  0  0  0  0  0  0  0  0  0  0
   13.0979   19.3932   48.4663 C   0  0  0  0  0  0  0  0  0  0  0  0
   12.2711   20.4558   48.7131 N   0  0  0  0  0  0  0  0  0  0  0  0
   12.0640   21.1766   47.5608 C   0  0  0  0  0  0  0  0  0  0  0  0
   11.2998   22.3294   47.3424 C   0  0  0  0  0  0  0  0  0  0  0  0
   11.2714   22.8519   46.0461 C   0  0  0  0  0  0  0  0  0  0  0  0
   11.9790   22.2440   45.0120 C   0  0  0  0  0  0  0  0  0  0  0  0
   12.7376   21.0917   45.2482 C   0  0  0  0  0  0  0  0  0  0  0  0
   12.7836   20.5440   46.5469 C   0  0  0  0  0  0  0  0  0  0  0  0
   11.8667   20.6837   49.6103 H   0  0  0  0  0  0  0  0  0  0  0  0
   14.3297   18.4312   46.4231 C   0  0  0  0  0  0  0  0  0  0  0  0
   15.5372   19.1184   45.7608 C   0  0  0  0  0  0  0  0  0  0  0  0
   16.4427   18.1976   45.0472 N   0  0  0  0  0  0  0  0  0  0  0  0
   17.8374   18.5700   45.2889 C   0  0  0  0  0  0  0  0  0  0  0  0
   16.2991   15.8289   44.1156 C   0  0  0  0  0  0  0  0  0  0  0  0
   16.2051   16.7717   45.3118 C   0  0  0  0  0  0  0  0  0  0  0  0
 15 16  1  0
 16 13  1  0
 13 14  1  0
 13 12  1  0
 12 11  1  0
 11  1  1  0
  1  2  2  0
  2  3  1  0
  3  4  1  0
  4  5  2  0
  5  6  1  0
  6  7  2  0
  7  8  1  0
  8  9  2  0
  9  1  1  0
  9  4  1  0
  3 10  1  0
M  END
> <minimizedAffinity>
-5.13201

> <CNNscore>
0.4747499526

> <CNNaffinity>
3.9626884460

> <CNN_VS>
1.8812861443

> <CNNaffinity_variance>
0.2700294554

$$$$
MET_like


 16 17  0  0  0  0  0  0  0  0999 V2000
   18.6422   12.3681   41.4839 C   0  0  0  0  0  0  0  0  0  0  0  0
   18.2409   13.6364   41.8575 C   0  0  0  0  0  0  0  0  0  0  0  0
   18.0511   13.6457   43.2131 N   0  0  0  0  0  0  0  0  0  0  0  0
   18.3177   12.4042   43.7404 C   0  0  0  0  0  0  0  0  0  0  0  0
   18.2557   11.9539   45.0648 C   0  0  0  0  0  0  0  0  0  0  0  0
   18.5884   10.6187   45.3113 C   0  0  0  0  0  0  0  0  0  0  0  0
   18.9675    9.7706   44.2737 C   0  0  0  0  0  0  0  0  0  0  0  0
   19.0243   10.2378   42.9556 C   0  0  0  0  0  0  0  0  0  0  0  0
   18.6937   11.5805   42.6792 C   0  0  0  0  0  0  0  0  0  0  0  0
   17.7579   14.4460   43.7553 H   0  0  0  0  0  0  0  0  0  0  0  0
   18.9608   11.9089   40.0926 C   0  0  0  0  0  0  0  0  0  0  0  0
   19.9782   10.7540   40.0835 C   0  0  0  0  0  0  0  0  0  0  0  0
   19.7140    9.7213   39.0632 N   0  0  0  0  0  0  0  0  0  0  0  0
   19.2595    8.4845   39.7003 C   0  0  0  0  0  0  0  0  0  0  0  0
   18.8747    9.3338   36.6874 C   0  0  0  0  0  0  0  0  0  0  0  0
   18.8126   10.1408   37.9811 C   0  0  0  0  0  0  0  0  0  0  0  0
 15 16  1  0
 16 13  1  0
 13 14  1  0
 13 12  1  0
 12 11  1  0
 11  1  1  0
  1  2  2  0
  2  3  1  0
  3  4  1  0
  4  5  2  0
  5  6  1  0
  6  7  2  0
  7  8  1  0
  8  9  2  0
  9  1  1  0
  9  4  1  0
  3 10  1  0
M  END
> <minimizedAffinity>
-4.45655

> <CNNscore>
0.4743552506

> <CNNaffinity>
3.6697356701

> <CNN_VS>
1.7407584190

> <CNNaffinity_variance>
0.8761601448

$$$$
